<?xml version="1.0" encoding="UTF-8"?>

<!-- generated on 2025-07-03 14:56:09 by Eclipse SUMO sumo Version 1.22.0
-->

<sumoConfiguration xmlns:xsi="http://www.w3.org/2001/XMLSchema-instance" xsi:noNamespaceSchemaLocation="http://sumo.dlr.de/xsd/sumoConfiguration.xsd">

    <input>
        <net-file value="net.net.xml"/>
 	<route-files value="89_fullHV.rou.xml"/>
        <additional-files value="detectors.xml"/>
    </input>

</sumoConfiguration>
