<?xml version="1.0" encoding="UTF-8"?>

<!-- generated on 2025-12-18T10:45:55.178054-06:00 by Eclipse SUMO netedit 1.25.0
<neteditConfiguration xmlns:xsi="http://www.w3.org/2001/XMLSchema-instance" xsi:noNamespaceSchemaLocation="http://sumo.dlr.de/xsd/neteditConfiguration.xsd">

    <input>
        <sumo-net-file value="C:\Users\micha\Downloads\610\610.net.xml"/>
    </input>

    <output>
        <output-file value="C:\Users\micha\Downloads\610\610.net.xml"/>
    </output>

    <processing>
        <geometry.min-radius.fix.railways value="false"/>
        <geometry.avoid-overlap value="false"/>
        <geometry.max-grade.fix value="false"/>
        <offset.disable-normalization value="true"/>
        <lefthand value="0"/>
    </processing>

    <junctions>
        <no-turnarounds value="true"/>
        <junctions.corner-detail value="5"/>
        <junctions.limit-turn-speed value="5.50"/>
        <rectangular-lane-cut value="0"/>
    </junctions>

    <pedestrian>
        <walkingareas value="0"/>
    </pedestrian>

</neteditConfiguration>
-->

<net version="1.20" junctionCornerDetail="5" limitTurnSpeed="5.50" avoidOverlap="0" xmlns:xsi="http://www.w3.org/2001/XMLSchema-instance" xsi:noNamespaceSchemaLocation="http://sumo.dlr.de/xsd/net_file.xsd">

    <location netOffset="0.00,0.00" convBoundary="-82.66,-127.03,2022.20,96.13" origBoundary="-10000000000.00,-10000000000.00,10000000000.00,10000000000.00" projParameter="!"/>

    <edge id=":J0_0" function="internal">
        <lane id=":J0_0_0" index="0" speed="26.80" length="0.30" shape="-57.51,-3.31 -57.81,-3.31"/>
    </edge>
    <edge id=":J1_0" function="internal">
        <lane id=":J1_0_0" index="0" speed="26.80" length="8.20" shape="-5.06,-5.23 -7.46,-5.02 -9.06,-4.48 -10.66,-3.93 -13.06,-3.66"/>
    </edge>
    <edge id=":J10_0" function="internal">
        <lane id=":J10_0_0" index="0" speed="7.49" length="5.48" shape="58.93,-14.54 60.16,-14.69 61.36,-15.15 62.52,-15.92 63.64,-16.99"/>
    </edge>
    <edge id=":J10_1" function="internal">
        <lane id=":J10_1_0" index="0" speed="26.80" length="6.83" shape="58.91,-11.34 60.88,-11.59 62.18,-12.16 63.48,-12.73 65.45,-13.00"/>
        <lane id=":J10_1_1" index="1" speed="26.80" length="6.83" shape="58.90,-8.14 60.89,-8.39 62.19,-8.96 63.50,-9.53 65.48,-9.80"/>
    </edge>
    <edge id=":J100_0" function="internal">
        <lane id=":J100_0_0" index="0" speed="23.45" length="6.63" shape="1587.48,9.41 1587.38,7.50 1587.74,6.19 1588.21,4.87 1588.43,2.92"/>
    </edge>
    <edge id=":J101_0" function="internal">
        <lane id=":J101_0_0" index="0" speed="20.34" length="3.17" shape="1637.96,-44.28 1638.73,-44.83 1639.24,-45.23 1639.77,-45.59 1640.62,-45.98"/>
    </edge>
    <edge id=":J102_0" function="internal">
        <lane id=":J102_0_0" index="0" speed="7.96" length="7.25" shape="1681.43,10.55 1680.35,8.55 1679.17,7.04 1677.91,6.03 1676.57,5.50"/>
    </edge>
    <edge id=":J102_1" function="internal">
        <lane id=":J102_1_0" index="0" speed="26.80" length="7.61" shape="1684.26,6.74 1676.57,5.50"/>
        <lane id=":J102_1_1" index="1" speed="26.80" length="7.61" shape="1684.71,3.57 1677.19,2.36"/>
        <lane id=":J102_1_2" index="2" speed="26.80" length="7.61" shape="1685.15,0.40 1677.82,-0.77"/>
    </edge>
    <edge id=":J103_0" function="internal">
        <lane id=":J103_0_0" index="0" speed="9.48" length="9.63" shape="1707.56,-11.09 1709.71,-11.00 1711.90,-11.48 1714.12,-12.54 1716.37,-14.17"/>
    </edge>
    <edge id=":J103_1" function="internal">
        <lane id=":J103_1_0" index="0" speed="26.80" length="10.43" shape="1707.56,-11.09 1717.68,-9.95"/>
        <lane id=":J103_1_1" index="1" speed="26.80" length="10.43" shape="1707.00,-7.94 1717.36,-6.77"/>
        <lane id=":J103_1_2" index="2" speed="26.80" length="10.43" shape="1706.43,-4.79 1717.04,-3.58"/>
    </edge>
    <edge id=":J104_0" function="internal">
        <lane id=":J104_0_0" index="0" speed="23.45" length="7.91" shape="1689.10,27.51 1685.95,20.25"/>
    </edge>
    <edge id=":J105_0" function="internal">
        <lane id=":J105_0_0" index="0" speed="20.34" length="2.91" shape="1716.99,-14.70 1717.63,-15.28 1718.02,-15.72 1718.40,-16.18 1718.97,-16.83"/>
    </edge>
    <edge id=":J106_0" function="internal">
        <lane id=":J106_0_0" index="0" speed="7.03" length="4.63" shape="1706.87,15.21 1706.22,14.22 1705.41,13.42 1704.46,12.82 1703.34,12.41"/>
        <lane id=":J106_0_1" index="1" speed="8.25" length="6.54" shape="1706.87,15.21 1706.39,13.95 1705.70,12.02 1704.92,10.22 1704.16,9.32"/>
        <lane id=":J106_0_2" index="2" speed="10.35" length="10.55" shape="1706.87,15.21 1704.80,10.95 1703.79,8.03 1703.85,6.45 1704.97,6.22"/>
    </edge>
    <edge id=":J106_3" function="internal">
        <lane id=":J106_3_0" index="0" speed="26.80" length="12.42" shape="1716.62,12.29 1712.86,11.71 1710.33,11.11 1707.82,10.35 1704.16,9.32"/>
        <lane id=":J106_3_1" index="1" speed="26.80" length="12.42" shape="1717.02,9.11 1713.39,8.55 1710.94,7.96 1708.52,7.23 1704.97,6.22"/>
        <lane id=":J106_3_2" index="2" speed="26.80" length="12.42" shape="1717.43,5.94 1713.92,5.39 1711.55,4.82 1709.21,4.10 1705.78,3.13"/>
    </edge>
    <edge id=":J107_0" function="internal">
        <lane id=":J107_0_0" index="0" speed="23.45" length="7.90" shape="1711.06,27.23 1710.38,25.00 1710.25,23.37 1710.05,21.76 1709.20,19.61"/>
    </edge>
    <edge id=":J108_0" function="internal">
        <lane id=":J108_0_0" index="0" speed="26.80" length="7.63" shape="1696.17,7.22 1694.08,6.93 1692.60,7.15 1691.11,7.45 1688.97,7.40"/>
        <lane id=":J108_0_1" index="1" speed="26.80" length="7.63" shape="1696.98,4.12 1694.79,3.81 1693.23,4.01 1691.67,4.30 1689.42,4.23"/>
        <lane id=":J108_0_2" index="2" speed="26.80" length="7.63" shape="1697.80,1.03 1695.49,0.68 1693.87,0.87 1692.22,1.15 1689.86,1.06"/>
    </edge>
    <edge id=":J109_0" function="internal">
        <lane id=":J109_0_0" index="0" speed="8.02" length="8.71" shape="1842.88,2.65 1844.77,2.53 1846.59,1.77 1848.33,0.39 1850.00,-1.63"/>
    </edge>
    <edge id=":J109_1" function="internal">
        <lane id=":J109_1_0" index="0" speed="26.80" length="9.80" shape="1842.88,2.65 1845.67,2.87 1847.59,2.91 1849.52,2.85 1852.33,2.79"/>
        <lane id=":J109_1_1" index="1" speed="26.80" length="9.80" shape="1842.56,5.83 1845.45,6.07 1847.44,6.11 1849.44,6.05 1852.34,5.99"/>
        <lane id=":J109_1_2" index="2" speed="26.80" length="9.80" shape="1842.24,9.01 1845.23,9.26 1847.29,9.31 1849.35,9.25 1852.36,9.19"/>
    </edge>
    <edge id=":J11_0" function="internal">
        <lane id=":J11_0_0" index="0" speed="20.34" length="2.93" shape="70.26,-24.40 70.82,-25.06 71.17,-25.54 71.50,-26.04 72.00,-26.75"/>
    </edge>
    <edge id=":J110_0" function="internal">
        <lane id=":J110_0_0" index="0" speed="10.35" length="9.92" shape="1859.97,2.75 1862.31,2.48 1864.55,1.71 1866.69,0.43 1868.73,-1.36"/>
    </edge>
    <edge id=":J110_1" function="internal">
        <lane id=":J110_1_0" index="0" speed="26.80" length="10.51" shape="1859.97,2.75 1870.42,2.52"/>
        <lane id=":J110_1_1" index="1" speed="26.80" length="10.51" shape="1859.99,5.95 1870.50,5.71"/>
        <lane id=":J110_1_2" index="2" speed="26.80" length="10.51" shape="1860.01,9.15 1870.58,8.91"/>
    </edge>
    <edge id=":J111_0" function="internal">
        <lane id=":J111_0_0" index="0" speed="26.80" length="8.19" shape="1883.61,5.38 1886.00,5.07 1887.59,4.49 1889.18,3.91 1891.58,3.63"/>
        <lane id=":J111_0_1" index="1" speed="26.80" length="8.19" shape="1883.69,8.58 1886.07,8.27 1887.65,7.69 1889.23,7.11 1891.61,6.83"/>
    </edge>
    <edge id=":J112_0" function="internal">
        <lane id=":J112_0_0" index="0" speed="7.31" length="4.11" shape="1938.25,-1.77 1939.15,-0.97 1939.88,-0.53 1940.71,-0.34 1941.91,-0.27"/>
    </edge>
    <edge id=":J112_1" function="internal">
        <lane id=":J112_1_0" index="0" speed="26.80" length="12.96" shape="1929.06,3.20 1932.94,2.60 1935.49,1.37 1938.03,0.19 1941.91,-0.27"/>
        <lane id=":J112_1_1" index="1" speed="26.80" length="12.96" shape="1929.06,3.20 1941.82,2.93"/>
        <lane id=":J112_1_2" index="2" speed="26.80" length="12.96" shape="1929.10,6.40 1941.74,6.13"/>
        <lane id=":J112_1_3" index="3" speed="26.80" length="12.96" shape="1929.10,6.40 1932.87,6.80 1935.38,7.77 1937.88,8.79 1941.65,9.33"/>
    </edge>
    <edge id=":J112_5" function="internal">
        <lane id=":J112_5_0" index="0" speed="18.30" length="11.91" shape="1929.96,10.08 1933.29,8.31 1935.62,7.04 1938.06,6.30 1941.74,6.13"/>
        <lane id=":J112_5_1" index="1" speed="17.19" length="11.91" shape="1931.33,12.97 1934.26,11.39 1936.29,10.21 1938.43,9.50 1941.65,9.33"/>
    </edge>
    <edge id=":J113_0" function="internal">
        <lane id=":J113_0_0" index="0" speed="26.80" length="0.30" shape="1974.55,0.62 1974.84,0.63"/>
        <lane id=":J113_0_1" index="1" speed="26.80" length="0.30" shape="1974.46,3.82 1974.76,3.82"/>
        <lane id=":J113_0_2" index="2" speed="26.80" length="0.30" shape="1974.38,7.02 1974.68,7.02"/>
        <lane id=":J113_0_3" index="3" speed="26.80" length="0.30" shape="1974.29,10.21 1974.60,10.22"/>
    </edge>
    <edge id=":J115_0" function="internal">
        <lane id=":J115_0_0" index="0" speed="20.34" length="2.87" shape="1852.55,-5.27 1853.00,-5.99 1853.25,-6.51 1853.46,-7.06 1853.80,-7.85"/>
    </edge>
    <edge id=":J116_0" function="internal">
        <lane id=":J116_0_0" index="0" speed="20.34" length="2.87" shape="1869.83,-2.49 1870.39,-3.12 1870.72,-3.60 1871.01,-4.11 1871.47,-4.83"/>
    </edge>
    <edge id=":J117_0" function="internal">
        <lane id=":J117_0_0" index="0" speed="23.45" length="7.00" shape="1906.07,-33.17 1907.59,-31.83 1908.34,-30.60 1909.02,-29.30 1910.36,-27.73"/>
    </edge>
    <edge id=":J118_0" function="internal">
        <lane id=":J118_0_0" index="0" speed="26.80" length="7.75" shape="1780.45,19.25 1778.30,19.00 1776.79,19.25 1775.27,19.56 1773.09,19.53"/>
        <lane id=":J118_0_1" index="1" speed="26.80" length="7.75" shape="1781.18,16.13 1778.94,15.86 1777.37,16.09 1775.78,16.40 1773.50,16.36"/>
        <lane id=":J118_0_2" index="2" speed="26.80" length="7.75" shape="1781.92,13.02 1779.58,12.73 1777.94,12.94 1776.28,13.24 1773.90,13.18"/>
    </edge>
    <edge id=":J119_0" function="internal">
        <lane id=":J119_0_0" index="0" speed="7.09" length="4.69" shape="1792.05,27.18 1791.35,26.19 1790.52,25.39 1789.54,24.81 1788.42,24.42"/>
        <lane id=":J119_0_1" index="1" speed="8.31" length="6.60" shape="1792.05,27.18 1791.53,25.93 1790.78,24.01 1789.95,22.20 1789.16,21.31"/>
        <lane id=":J119_0_2" index="2" speed="10.42" length="10.64" shape="1792.05,27.18 1789.83,22.95 1788.74,20.04 1788.76,18.46 1789.90,18.19"/>
    </edge>
    <edge id=":J119_3" function="internal">
        <lane id=":J119_3_0" index="0" speed="26.80" length="5.60" shape="1794.54,23.54 1792.88,23.11 1791.83,22.52 1790.79,21.88 1789.16,21.31"/>
        <lane id=":J119_3_1" index="1" speed="26.80" length="5.60" shape="1795.00,20.38 1793.43,19.96 1792.43,19.38 1791.45,18.75 1789.90,18.19"/>
        <lane id=":J119_3_2" index="2" speed="26.80" length="5.60" shape="1795.47,17.21 1793.97,16.80 1793.04,16.23 1792.11,15.62 1790.64,15.08"/>
    </edge>
    <edge id=":J12_0" function="internal">
        <lane id=":J12_0_0" index="0" speed="6.87" length="5.70" shape="117.81,-17.78 118.76,-16.62 119.87,-15.79 121.14,-15.30 122.58,-15.13"/>
    </edge>
    <edge id=":J12_1" function="internal">
        <lane id=":J12_1_0" index="0" speed="26.80" length="7.29" shape="115.50,-13.47 117.62,-13.25 119.04,-12.71 120.45,-12.18 122.58,-11.93"/>
        <lane id=":J12_1_1" index="1" speed="26.80" length="7.29" shape="115.53,-10.27 117.65,-10.05 119.05,-9.51 120.46,-8.98 122.58,-8.73"/>
    </edge>
    <edge id=":J120_0" function="internal">
        <lane id=":J120_0_0" index="0" speed="23.45" length="8.21" shape="1804.35,52.29 1803.42,50.07 1803.13,48.40 1802.82,46.73 1801.86,44.52"/>
    </edge>
    <edge id=":J121_0" function="internal">
        <lane id=":J121_0_0" index="0" speed="6.69" length="6.32" shape="1844.70,34.12 1844.02,32.61 1843.04,31.46 1841.75,30.67 1840.16,30.24"/>
    </edge>
    <edge id=":J121_1" function="internal">
        <lane id=":J121_1_0" index="0" speed="26.80" length="15.37" shape="1856.09,28.90 1851.47,28.79 1848.33,28.42 1845.20,27.84 1840.62,27.07"/>
        <lane id=":J121_1_1" index="1" speed="26.80" length="15.37" shape="1856.08,25.70 1851.60,25.59 1848.55,25.23 1845.52,24.65 1841.09,23.90"/>
    </edge>
    <edge id=":J122_0" function="internal">
        <lane id=":J122_0_0" index="0" speed="23.45" length="8.21" shape="1851.45,61.50 1851.01,59.13 1851.08,57.44 1851.14,55.74 1850.67,53.38"/>
    </edge>
    <edge id=":J123_0" function="internal">
        <lane id=":J123_0_0" index="0" speed="8.82" length="8.14" shape="1938.22,28.62 1936.61,28.84 1934.94,29.58 1933.20,30.85 1931.40,32.65"/>
    </edge>
    <edge id=":J123_1" function="internal">
        <lane id=":J123_1_0" index="0" speed="20.34" length="8.69" shape="1938.22,28.62 1929.58,28.60"/>
        <lane id=":J123_1_1" index="1" speed="20.34" length="8.69" shape="1938.30,25.42 1929.56,25.40"/>
    </edge>
    <edge id=":J124_0" function="internal">
        <lane id=":J124_0_0" index="0" speed="20.34" length="1.63" shape="1918.40,47.27 1919.40,48.55"/>
    </edge>
    <edge id=":J125_0" function="internal">
        <lane id=":J125_0_0" index="0" speed="20.34" length="0.23" shape="1984.77,29.88 1984.42,29.89"/>
        <lane id=":J125_0_1" index="1" speed="20.34" length="0.23" shape="1984.62,26.69 1984.51,26.69"/>
    </edge>
    <edge id=":J127_0" function="internal">
        <lane id=":J127_0_0" index="0" speed="16.65" length="9.31" shape="1914.96,15.21 1917.50,15.15 1919.25,14.92 1920.92,14.35 1923.24,13.29"/>
        <lane id=":J127_0_1" index="1" speed="17.91" length="9.31" shape="1914.96,15.21 1917.90,15.63 1919.96,16.46 1921.94,16.90 1924.62,16.18"/>
    </edge>
    <edge id=":J128_0" function="internal">
        <lane id=":J128_0_0" index="0" speed="20.10" length="0.16" shape="1713.13,40.33 1713.03,40.12"/>
        <lane id=":J128_0_1" index="1" speed="20.10" length="0.16" shape="1716.01,38.94 1715.98,38.87"/>
    </edge>
    <edge id=":J129_0" function="internal">
        <lane id=":J129_0_0" index="0" speed="20.10" length="0.29" shape="1689.25,36.41 1689.24,36.37 1689.23,36.34 1689.22,36.31 1689.20,36.27"/>
        <lane id=":J129_0_1" index="1" speed="20.10" length="0.29" shape="1692.31,35.48 1692.28,35.36 1692.25,35.27 1692.22,35.19 1692.17,35.07"/>
    </edge>
    <edge id=":J13_0" function="internal">
        <lane id=":J13_0_0" index="0" speed="26.80" length="8.21" shape="128.96,-11.93 131.36,-12.18 132.96,-12.73 134.56,-13.28 136.96,-13.54"/>
        <lane id=":J13_0_1" index="1" speed="26.80" length="8.21" shape="128.96,-8.73 131.36,-8.98 132.96,-9.53 134.56,-10.08 136.96,-10.34"/>
    </edge>
    <edge id=":J130_0" function="internal">
        <lane id=":J130_0_0" index="0" speed="20.10" length="0.17" shape="1586.85,23.58 1586.80,23.33"/>
        <lane id=":J130_0_1" index="1" speed="20.10" length="0.17" shape="1589.96,22.83 1589.95,22.75"/>
    </edge>
    <edge id=":J132_0" function="internal">
        <lane id=":J132_0_0" index="0" speed="20.10" length="0.24" shape="1415.42,-42.44 1415.31,-42.58"/>
        <lane id=":J132_0_1" index="1" speed="20.10" length="0.24" shape="1417.93,-44.42 1417.75,-44.65"/>
    </edge>
    <edge id=":J135_0" function="internal">
        <lane id=":J135_0_0" index="0" speed="20.10" length="0.58" shape="1305.00,-19.98 1304.93,-20.02 1304.87,-20.05 1304.82,-20.07 1304.74,-20.09"/>
        <lane id=":J135_0_1" index="1" speed="20.10" length="0.58" shape="1306.51,-22.81 1306.28,-22.93 1306.12,-23.00 1305.96,-23.06 1305.71,-23.14"/>
    </edge>
    <edge id=":J137_0" function="internal">
        <lane id=":J137_0_0" index="0" speed="20.10" length="0.60" shape="1169.58,17.84 1169.51,17.79 1169.46,17.75 1169.41,17.72 1169.33,17.68"/>
        <lane id=":J137_0_1" index="1" speed="20.10" length="0.60" shape="1171.54,15.31 1171.33,15.15 1171.18,15.04 1171.02,14.95 1170.79,14.83"/>
    </edge>
    <edge id=":J139_0" function="internal">
        <lane id=":J139_0_0" index="0" speed="20.10" length="0.29" shape="1028.01,27.35 1027.81,27.11"/>
        <lane id=":J139_0_1" index="1" speed="20.10" length="0.29" shape="1030.48,25.32 1030.32,25.12"/>
    </edge>
    <edge id=":J14_0" function="internal">
        <lane id=":J14_0_0" index="0" speed="23.45" length="8.20" shape="105.67,-39.57 106.72,-37.40 107.10,-35.75 107.50,-34.11 108.59,-31.97"/>
    </edge>
    <edge id=":J141_0" function="internal">
        <lane id=":J141_0_0" index="0" speed="20.10" length="0.29" shape="884.73,33.28 884.55,33.09"/>
        <lane id=":J141_0_1" index="1" speed="20.10" length="0.29" shape="887.09,31.12 886.88,30.89"/>
    </edge>
    <edge id=":J143_0" function="internal">
        <lane id=":J143_0_0" index="0" speed="10.65" length="1.11" shape="799.51,30.55 799.18,30.18 798.98,29.91 798.81,29.61 798.61,29.16"/>
        <lane id=":J143_0_1" index="1" speed="20.10" length="1.11" shape="801.86,28.37 801.75,28.25 801.68,28.16 801.62,28.06 801.56,27.91"/>
    </edge>
    <edge id=":J145_0" function="internal">
        <lane id=":J145_0_0" index="0" speed="20.10" length="0.30" shape="592.64,27.19 592.39,27.00"/>
        <lane id=":J145_0_1" index="1" speed="20.10" length="0.30" shape="594.61,24.68 594.38,24.50"/>
    </edge>
    <edge id=":J148_0" function="internal">
        <lane id=":J148_0_0" index="0" speed="20.10" length="0.36" shape="249.01,24.51 248.88,24.41 248.79,24.34 248.71,24.26 248.59,24.15"/>
        <lane id=":J148_0_1" index="1" speed="20.10" length="0.36" shape="250.96,21.97 250.91,21.94 250.88,21.91 250.86,21.89 250.82,21.85"/>
    </edge>
    <edge id=":J149_0" function="internal">
        <lane id=":J149_0_0" index="0" speed="20.10" length="0.31" shape="38.28,24.91 38.25,24.88 38.23,24.85 38.21,24.83 38.18,24.80"/>
        <lane id=":J149_0_1" index="1" speed="20.10" length="0.31" shape="40.73,22.85 40.64,22.74 40.57,22.67 40.51,22.61 40.41,22.51"/>
    </edge>
    <edge id=":J15_0" function="internal">
        <lane id=":J15_0_0" index="0" speed="7.25" length="2.59" shape="223.99,-0.16 223.33,-0.50 222.82,-0.59 222.27,-0.56 221.49,-0.52"/>
    </edge>
    <edge id=":J15_1" function="internal">
        <lane id=":J15_1_0" index="0" speed="26.80" length="8.84" shape="230.36,-0.56 221.49,-0.52"/>
        <lane id=":J15_1_1" index="1" speed="26.80" length="8.84" shape="230.35,-3.76 221.52,-3.72"/>
    </edge>
    <edge id=":J151_0" function="internal">
        <lane id=":J151_0_0" index="0" speed="20.10" length="1.16" shape="104.60,-47.61 104.63,-47.44 104.67,-47.33 104.72,-47.22 104.81,-47.08"/>
        <lane id=":J151_0_1" index="1" speed="10.10" length="1.16" shape="101.46,-47.00 101.56,-46.50 101.66,-46.16 101.82,-45.84 102.08,-45.40"/>
    </edge>
    <edge id=":J153_0" function="internal">
        <lane id=":J153_0_0" index="0" speed="20.10" length="0.33" shape="403.49,-42.49 403.60,-42.39 403.67,-42.32 403.74,-42.25 403.84,-42.14"/>
        <lane id=":J153_0_1" index="1" speed="20.10" length="0.33" shape="401.32,-40.14 401.35,-40.11 401.38,-40.09 401.40,-40.06 401.43,-40.03"/>
    </edge>
    <edge id=":J156_0" function="internal">
        <lane id=":J156_0_0" index="0" speed="20.10" length="0.59" shape="641.30,-41.41 641.43,-41.19 641.52,-41.03 641.59,-40.86 641.68,-40.62"/>
        <lane id=":J156_0_1" index="1" speed="20.10" length="0.59" shape="638.55,-39.78 638.59,-39.71 638.62,-39.66 638.64,-39.60 638.67,-39.52"/>
    </edge>
    <edge id=":J158_0" function="internal">
        <lane id=":J158_0_0" index="0" speed="20.10" length="0.25" shape="831.38,-44.58 831.50,-44.42"/>
        <lane id=":J158_0_1" index="1" speed="20.10" length="0.25" shape="828.80,-42.70 828.98,-42.45"/>
    </edge>
    <edge id=":J16_0" function="internal">
        <lane id=":J16_0_0" index="0" speed="11.01" length="8.24" shape="252.11,-13.75 254.43,-14.01 255.91,-14.74 257.24,-15.93 259.11,-17.54"/>
    </edge>
    <edge id=":J16_1" function="internal">
        <lane id=":J16_1_0" index="0" speed="26.80" length="8.28" shape="252.11,-13.75 260.38,-13.76"/>
        <lane id=":J16_1_1" index="1" speed="26.80" length="8.28" shape="252.11,-10.55 260.39,-10.56"/>
    </edge>
    <edge id=":J160_0" function="internal">
        <lane id=":J160_0_0" index="0" speed="20.10" length="0.66" shape="921.60,-44.24 921.84,-44.07 922.00,-43.94 922.15,-43.80 922.35,-43.59"/>
        <lane id=":J160_0_1" index="1" speed="20.10" length="0.66" shape="919.78,-41.61 919.86,-41.55 919.91,-41.51 919.96,-41.46 920.03,-41.39"/>
    </edge>
    <edge id=":J162_0" function="internal">
        <lane id=":J162_0_0" index="0" speed="20.10" length="0.27" shape="1042.58,-42.25 1042.88,-41.98"/>
        <lane id=":J162_0_1" index="1" speed="20.10" length="0.27" shape="1040.55,-39.77 1040.65,-39.68"/>
    </edge>
    <edge id=":J164_0" function="internal">
        <lane id=":J164_0_0" index="0" speed="20.10" length="0.53" shape="1164.74,-55.73 1164.80,-55.68 1164.83,-55.64 1164.87,-55.60 1164.94,-55.55"/>
        <lane id=":J164_0_1" index="1" speed="20.10" length="0.53" shape="1162.36,-53.60 1162.52,-53.43 1162.63,-53.31 1162.75,-53.21 1162.93,-53.06"/>
    </edge>
    <edge id=":J166_0" function="internal">
        <lane id=":J166_0_0" index="0" speed="20.10" length="0.57" shape="1300.42,-90.76 1300.49,-90.72 1300.54,-90.69 1300.59,-90.67 1300.67,-90.64"/>
        <lane id=":J166_0_1" index="1" speed="20.10" length="0.57" shape="1298.76,-88.03 1298.98,-87.89 1299.13,-87.81 1299.29,-87.74 1299.53,-87.65"/>
    </edge>
    <edge id=":J168_0" function="internal">
        <lane id=":J168_0_0" index="0" speed="20.10" length="0.51" shape="1476.30,-118.65 1476.41,-118.46 1476.48,-118.32 1476.55,-118.18 1476.63,-117.97"/>
        <lane id=":J168_0_1" index="1" speed="20.10" length="0.51" shape="1473.55,-117.02 1473.58,-116.95 1473.61,-116.91 1473.63,-116.86 1473.66,-116.79"/>
    </edge>
    <edge id=":J17_0" function="internal">
        <lane id=":J17_0_0" index="0" speed="23.45" length="3.49" shape="227.61,-0.59 224.16,-0.05"/>
    </edge>
    <edge id=":J173_0" function="internal">
        <lane id=":J173_0_0" index="0" speed="20.10" length="0.10" shape="1898.62,-42.15 1898.75,-42.06"/>
        <lane id=":J173_0_1" index="1" speed="20.10" length="0.10" shape="1896.90,-39.45 1896.94,-39.42"/>
    </edge>
    <edge id=":J18_0" function="internal">
        <lane id=":J18_0_0" index="0" speed="9.66" length="7.77" shape="387.96,-1.12 385.78,-0.87 384.41,-0.14 383.22,1.07 381.59,2.73"/>
    </edge>
    <edge id=":J18_1" function="internal">
        <lane id=":J18_1_0" index="0" speed="26.80" length="7.87" shape="387.96,-1.12 380.09,-1.09"/>
        <lane id=":J18_1_1" index="1" speed="26.80" length="7.87" shape="387.96,-4.32 380.08,-4.29"/>
    </edge>
    <edge id=":J184_0" function="internal">
        <lane id=":J184_0_0" index="0" speed="17.00" length="8.40" shape="1821.43,83.53 1819.80,81.61 1818.09,80.79 1816.39,79.97 1814.77,78.05"/>
        <lane id=":J184_0_1" index="1" speed="17.00" length="8.40" shape="1821.43,83.53 1817.58,76.52"/>
    </edge>
    <edge id=":J19_0" function="internal">
        <lane id=":J19_0_0" index="0" speed="8.08" length="5.28" shape="420.89,-17.71 422.04,-16.64 422.92,-15.97 423.93,-15.61 425.45,-15.50"/>
    </edge>
    <edge id=":J19_1" function="internal">
        <lane id=":J19_1_0" index="0" speed="26.80" length="6.30" shape="419.40,-13.88 421.22,-13.64 422.42,-13.10 423.62,-12.55 425.44,-12.30"/>
        <lane id=":J19_1_1" index="1" speed="26.80" length="6.30" shape="419.40,-10.68 421.22,-10.44 422.41,-9.90 423.61,-9.35 425.42,-9.10"/>
    </edge>
    <edge id=":J197_0" function="internal">
        <lane id=":J197_0_0" index="0" speed="20.34" length="0.10" shape="116.13,13.41 116.13,13.41"/>
    </edge>
    <edge id=":J2_0" function="internal">
        <lane id=":J2_0_0" index="0" speed="26.80" length="0.30" shape="-57.60,-13.60 -57.31,-13.60"/>
        <lane id=":J2_0_1" index="1" speed="26.80" length="0.30" shape="-57.64,-10.40 -57.33,-10.40"/>
    </edge>
    <edge id=":J20_0" function="internal">
        <lane id=":J20_0_0" index="0" speed="20.34" length="2.91" shape="262.23,-19.92 262.90,-20.46 263.32,-20.88 263.73,-21.31 264.33,-21.93"/>
    </edge>
    <edge id=":J21_0" function="internal">
        <lane id=":J21_0_0" index="0" speed="23.45" length="7.74" shape="409.20,-31.18 410.51,-29.32 411.15,-27.83 411.83,-26.40 413.31,-24.70"/>
    </edge>
    <edge id=":J22_0" function="internal">
        <lane id=":J22_0_0" index="0" speed="26.80" length="8.21" shape="434.32,-12.25 436.72,-12.49 438.33,-13.03 439.93,-13.57 442.33,-13.79"/>
        <lane id=":J22_0_1" index="1" speed="26.80" length="8.21" shape="434.30,-9.05 436.70,-9.29 438.30,-9.83 439.91,-10.37 442.31,-10.60"/>
    </edge>
    <edge id=":J23_0" function="internal">
        <lane id=":J23_0_0" index="0" speed="20.34" length="1.63" shape="366.51,16.60 367.37,17.99"/>
    </edge>
    <edge id=":J24_0" function="internal">
        <lane id=":J24_0_0" index="0" speed="10.40" length="8.12" shape="488.91,-1.23 486.63,-1.01 485.17,-0.27 483.88,0.93 482.08,2.56"/>
    </edge>
    <edge id=":J24_1" function="internal">
        <lane id=":J24_1_0" index="0" speed="26.80" length="8.20" shape="488.91,-1.23 480.74,-1.22"/>
        <lane id=":J24_1_1" index="1" speed="26.80" length="8.20" shape="488.96,-4.43 480.74,-4.42"/>
    </edge>
    <edge id=":J25_0" function="internal">
        <lane id=":J25_0_0" index="0" speed="20.34" length="2.91" shape="478.32,5.59 477.66,6.15 477.25,6.57 476.86,7.02 476.27,7.65"/>
    </edge>
    <edge id=":J26_0" function="internal">
        <lane id=":J26_0_0" index="0" speed="26.80" length="8.16" shape="566.53,-1.47 564.16,-1.35 562.57,-0.87 560.97,-0.36 558.60,-0.15"/>
        <lane id=":J26_0_1" index="1" speed="26.80" length="8.16" shape="566.71,-4.67 564.30,-4.55 562.68,-4.07 561.05,-3.56 558.64,-3.35"/>
    </edge>
    <edge id=":J27_0" function="internal">
        <lane id=":J27_0_0" index="0" speed="26.80" length="8.21" shape="601.45,-12.40 603.86,-12.63 605.46,-13.17 607.07,-13.70 609.47,-13.93"/>
        <lane id=":J27_0_1" index="1" speed="26.80" length="8.21" shape="601.45,-12.40 603.85,-12.13 605.45,-11.57 607.04,-11.00 609.44,-10.73"/>
        <lane id=":J27_0_2" index="2" speed="26.80" length="8.21" shape="601.43,-9.21 603.82,-8.93 605.42,-8.37 607.01,-7.80 609.40,-7.53"/>
    </edge>
    <edge id=":J28_0" function="internal">
        <lane id=":J28_0_0" index="0" speed="7.09" length="5.14" shape="577.29,4.53 576.38,3.52 575.35,2.77 574.21,2.29 572.96,2.09"/>
    </edge>
    <edge id=":J28_1" function="internal">
        <lane id=":J28_1_0" index="0" speed="20.34" length="6.45" shape="579.32,0.46 577.40,0.75 576.14,1.35 574.87,1.91 572.96,2.09"/>
        <lane id=":J28_1_1" index="1" speed="20.34" length="6.45" shape="579.32,0.46 577.46,0.25 576.23,-0.25 575.00,-0.79 573.13,-1.11"/>
        <lane id=":J28_1_2" index="2" speed="20.34" length="6.45" shape="579.31,-2.74 577.50,-2.95 576.31,-3.45 575.12,-3.98 573.31,-4.30"/>
    </edge>
    <edge id=":J29_0" function="internal">
        <lane id=":J29_0_0" index="0" speed="23.45" length="8.39" shape="592.13,22.71 590.20,21.14 588.94,19.99 587.82,18.69 586.33,16.71"/>
    </edge>
    <edge id=":J3_0" function="internal">
        <lane id=":J3_0_0" index="0" speed="26.80" length="8.21" shape="25.31,-13.07 27.71,-13.30 29.31,-13.84 30.91,-14.38 33.31,-14.63"/>
        <lane id=":J3_0_1" index="1" speed="26.80" length="8.21" shape="25.31,-13.07 27.71,-12.80 29.31,-12.24 30.90,-11.68 33.30,-11.43"/>
        <lane id=":J3_0_2" index="2" speed="26.80" length="8.21" shape="25.29,-9.87 27.69,-9.60 29.29,-9.04 30.89,-8.48 33.29,-8.23"/>
    </edge>
    <edge id=":J30_0" function="internal">
        <lane id=":J30_0_0" index="0" speed="6.71" length="6.12" shape="619.30,-13.82 620.88,-13.99 622.24,-14.54 623.38,-15.46 624.29,-16.77"/>
    </edge>
    <edge id=":J30_1" function="internal">
        <lane id=":J30_1_0" index="0" speed="26.80" length="7.91" shape="619.26,-10.62 621.56,-10.85 623.10,-11.39 624.63,-11.95 626.94,-12.20"/>
        <lane id=":J30_1_1" index="1" speed="26.80" length="7.91" shape="619.23,-7.42 621.54,-7.65 623.08,-8.19 624.62,-8.75 626.93,-9.00"/>
    </edge>
    <edge id=":J31_0" function="internal">
        <lane id=":J31_0_0" index="0" speed="5.11" length="2.85" shape="651.80,-13.50 654.64,-13.81"/>
    </edge>
    <edge id=":J31_1" function="internal">
        <lane id=":J31_1_0" index="0" speed="26.80" length="7.49" shape="647.50,-12.19 649.66,-11.93 651.11,-11.37 652.55,-10.82 654.72,-10.61"/>
        <lane id=":J31_1_1" index="1" speed="26.80" length="7.49" shape="647.49,-8.99 649.69,-8.73 651.15,-8.17 652.61,-7.62 654.80,-7.41"/>
    </edge>
    <edge id=":J32_0" function="internal">
        <lane id=":J32_0_0" index="0" speed="7.79" length="5.44" shape="666.80,1.67 665.62,1.80 664.43,2.24 663.24,2.98 662.04,4.02"/>
    </edge>
    <edge id=":J32_1" function="internal">
        <lane id=":J32_1_0" index="0" speed="20.34" length="6.73" shape="666.84,-1.53 664.91,-1.30 663.63,-0.73 662.36,-0.16 660.42,0.11"/>