<?xml version="1.0" encoding="UTF-8"?>
<routes xmlns:xsi="http://www.w3.org/2001/XMLSchema-instance" xsi:noNamespaceSchemaLocation="http://sumo.dlr.de/xsd/routes_file.xsd">
<vType id="HV_M" length="5.00" minGap="3.40" maxSpeed="44.10" speedFactor="normc(1.00,0.10,0.20,2.00)" color="yellow" lcAssertive="5" carFollowModel="IDM" accel="1.06" decel="1.11" tau="1.26" delta="4"/>
<flow id="HV_1" type="HV_M" begin="0.00" departLane="free" departSpeed="avg" from="ent-WB610" to="exit-WB610/University-2" end="3600.00" vehsPerHour="298.00"/>
<flow id="HV_2" type="HV_M" begin="0.00" departLane="free" departSpeed="avg" from="ent-WB610/Foley" to="exit-WB610/SB252" end="3600.00" vehsPerHour="233.00"/>
<flow id="HV_3" type="HV_M" begin="0.00" departLane="free" departSpeed="avg" from="ent-WB610/CoonRapids" to="exit-WB610/SB252" end="3600.00" vehsPerHour="200.00"/>
<flow id="HV_4" type="HV_M" begin="0.00" departLane="free" departSpeed="avg" from="ent-WB610/University" to="exit-WB610/SB252" end="3600.00" vehsPerHour="301.00"/>
<flow id="HV_5" type="HV_M" begin="0.00" departLane="free" departSpeed="avg" from="ent-WB610/SB47" to="exit-WB610/SB252" end="3600.00" vehsPerHour="200.00"/>
<flow id="HV_6" type="HV_M" begin="0.00" departLane="free" departSpeed="avg" from="ent-WB610" to="exit-WB610/SB252" end="3600.00" vehsPerHour="1693.00"/>
<flow id="HV_7" type="HV_M" begin="0.00" departLane="free" departSpeed="avg" from="ent-WB610/River" to="exit-WB610/SB252" end="3600.00" vehsPerHour="489.00"/>
<flow id="HV_8" type="HV_M" begin="0.00" departLane="free" departSpeed="avg" from="ent-WB610/Foley" to="exit-WB610/NBNoble" end="3600.00" vehsPerHour="60.00"/>
<flow id="HV_9" type="HV_M" begin="0.00" departLane="free" departSpeed="avg" from="ent-WB610/NB252" to="exit-WB610/NBNoble" end="3600.00" vehsPerHour="80.00"/>
<flow id="HV_10" type="HV_M" begin="0.00" departLane="free" departSpeed="avg" from="ent-WB610/CoonRapids" to="exit-WB610/NBNoble" end="3600.00" vehsPerHour="52.00"/>
<flow id="HV_11" type="HV_M" begin="0.00" departLane="free" departSpeed="avg" from="ent-WB610/University" to="exit-WB610/NBNoble" end="3600.00" vehsPerHour="78.00"/>
<flow id="HV_12" type="HV_M" begin="0.00" departLane="free" departSpeed="avg" from="ent-WB610/SB47" to="exit-WB610/NBNoble" end="3600.00" vehsPerHour="52.00"/>
<flow id="HV_13" type="HV_M" begin="0.00" departLane="free" departSpeed="avg" from="ent-WB610" to="exit-WB610/NBNoble" end="3600.00" vehsPerHour="439.00"/>
<flow id="HV_14" type="HV_M" begin="0.00" departLane="free" departSpeed="avg" from="ent-WB610/River" to="exit-WB610/NBNoble" end="3600.00" vehsPerHour="127.00"/>
<flow id="HV_15" type="HV_M" begin="0.00" departLane="free" departSpeed="avg" from="ent-WB610/Foley" to="exit-WB610/NBZane" end="3600.00" vehsPerHour="51.00"/>
<flow id="HV_16" type="HV_M" begin="0.00" departLane="free" departSpeed="avg" from="ent-WB610/NB252" to="exit-WB610/NBZane" end="3600.00" vehsPerHour="67.00"/>
<flow id="HV_17" type="HV_M" begin="0.00" departLane="free" departSpeed="avg" from="ent-WB610/CoonRapids" to="exit-WB610/NBZane" end="3600.00" vehsPerHour="44.00"/>
<flow id="HV_18" type="HV_M" begin="0.00" departLane="free" departSpeed="avg" from="ent-WB610/University" to="exit-WB610/NBZane" end="3600.00" vehsPerHour="66.00"/>
<flow id="HV_19" type="HV_M" begin="0.00" departLane="free" departSpeed="avg" from="ent-WB610/SB47" to="exit-WB610/NBZane" end="3600.00" vehsPerHour="44.00"/>
<flow id="HV_20" type="HV_M" begin="0.00" departLane="free" departSpeed="avg" from="ent-WB610" to="exit-WB610/NBZane" end="3600.00" vehsPerHour="370.00"/>
<flow id="HV_21" type="HV_M" begin="0.00" departLane="free" departSpeed="avg" from="ent-WB610/River" to="exit-WB610/NBZane" end="3600.00" vehsPerHour="107.00"/>
<flow id="HV_22" type="HV_M" begin="0.00" departLane="free" departSpeed="avg" from="ent-WB610/SBNoble" to="exit-WB610/NBZane" end="3600.00" vehsPerHour="175.00"/>
<flow id="HV_23" type="HV_M" begin="0.00" departLane="free" departSpeed="avg" from="ent-WB610/SBZane" to="exit-WB610/NBBroadway" end="3600.00" vehsPerHour="67.00"/>
<flow id="HV_24" type="HV_M" begin="0.00" departLane="free" departSpeed="avg" from="ent-WB610/Foley" to="exit-WB610/NBBroadway" end="3600.00" vehsPerHour="41.00"/>
<flow id="HV_25" type="HV_M" begin="0.00" departLane="free" departSpeed="avg" from="ent-WB610/NB252" to="exit-WB610/NBBroadway" end="3600.00" vehsPerHour="54.00"/>
<flow id="HV_26" type="HV_M" begin="0.00" departLane="free" departSpeed="avg" from="ent-WB610/CoonRapids" to="exit-WB610/NBBroadway" end="3600.00" vehsPerHour="35.00"/>
<flow id="HV_27" type="HV_M" begin="0.00" departLane="free" departSpeed="avg" from="ent-WB610/University" to="exit-WB610/NBBroadway" end="3600.00" vehsPerHour="52.00"/>
<flow id="HV_28" type="HV_M" begin="0.00" departLane="free" departSpeed="avg" from="ent-WB610/SB47" to="exit-WB610/NBBroadway" end="3600.00" vehsPerHour="35.00"/>
<flow id="HV_29" type="HV_M" begin="0.00" departLane="free" departSpeed="avg" from="ent-WB610" to="exit-WB610/NBBroadway" end="3600.00" vehsPerHour="295.00"/>
<flow id="HV_30" type="HV_M" begin="0.00" departLane="free" departSpeed="avg" from="ent-WB610/River" to="exit-WB610/NBBroadway" end="3600.00" vehsPerHour="85.00"/>
<flow id="HV_31" type="HV_M" begin="0.00" departLane="free" departSpeed="avg" from="ent-WB610/SBNoble" to="exit-WB610/NBBroadway" end="3600.00" vehsPerHour="139.00"/>
<flow id="HV_32" type="HV_M" begin="0.00" departLane="free" departSpeed="avg" from="ent-WB610/SBZane" to="exit-WB610/NB169-2" end="3600.00" vehsPerHour="73.00"/>
<flow id="HV_33" type="HV_M" begin="0.00" departLane="free" departSpeed="avg" from="ent-WB610/Broadway" to="exit-WB610/NB169-2" end="3600.00" vehsPerHour="16.00"/>
<flow id="HV_34" type="HV_M" begin="0.00" departLane="free" departSpeed="avg" from="ent-WB610/Foley" to="exit-WB610/NB169-2" end="3600.00" vehsPerHour="44.00"/>
<flow id="HV_35" type="HV_M" begin="0.00" departLane="free" departSpeed="avg" from="ent-WB610/NB252" to="exit-WB610/NB169-2" end="3600.00" vehsPerHour="59.00"/>
<flow id="HV_36" type="HV_M" begin="0.00" departLane="free" departSpeed="avg" from="ent-WB610/CoonRapids" to="exit-WB610/NB169-2" end="3600.00" vehsPerHour="38.00"/>
<flow id="HV_37" type="HV_M" begin="0.00" departLane="free" departSpeed="avg" from="ent-WB610/University" to="exit-WB610/NB169-2" end="3600.00" vehsPerHour="57.00"/>
<flow id="HV_38" type="HV_M" begin="0.00" departLane="free" departSpeed="avg" from="ent-WB610/SB47" to="exit-WB610/NB169-2" end="3600.00" vehsPerHour="38.00"/>
<flow id="HV_39" type="HV_M" begin="0.00" departLane="free" departSpeed="avg" from="ent-WB610" to="exit-WB610/NB169-2" end="3600.00" vehsPerHour="322.00"/>
<flow id="HV_40" type="HV_M" begin="0.00" departLane="free" departSpeed="avg" from="ent-WB610/River" to="exit-WB610/NB169-2" end="3600.00" vehsPerHour="93.00"/>
<flow id="HV_41" type="HV_M" begin="0.00" departLane="free" departSpeed="avg" from="ent-WB610/SBNoble" to="exit-WB610/NB169-2" end="3600.00" vehsPerHour="152.00"/>
<flow id="HV_42" type="HV_M" begin="0.00" departLane="free" departSpeed="avg" from="ent-WB610/SBZane" to="exit-WB610/SB169-2" end="3600.00" vehsPerHour="16.00"/>
<flow id="HV_43" type="HV_M" begin="0.00" departLane="free" departSpeed="avg" from="ent-WB610/Broadway" to="exit-WB610/SB169-2" end="3600.00" vehsPerHour="4.00"/>
<flow id="HV_44" type="HV_M" begin="0.00" departLane="free" departSpeed="avg" from="ent-WB610/Foley" to="exit-WB610/SB169-2" end="3600.00" vehsPerHour="10.00"/>
<flow id="HV_45" type="HV_M" begin="0.00" departLane="free" departSpeed="avg" from="ent-WB610/NB252" to="exit-WB610/SB169-2" end="3600.00" vehsPerHour="13.00"/>
<flow id="HV_46" type="HV_M" begin="0.00" departLane="free" departSpeed="avg" from="ent-WB610/CoonRapids" to="exit-WB610/SB169-2" end="3600.00" vehsPerHour="8.00"/>
<flow id="HV_47" type="HV_M" begin="0.00" departLane="free" departSpeed="avg" from="ent-WB610/University" to="exit-WB610/SB169-2" end="3600.00" vehsPerHour="12.00"/>
<flow id="HV_48" type="HV_M" begin="0.00" departLane="free" departSpeed="avg" from="ent-WB610/SB47" to="exit-WB610/SB169-2" end="3600.00" vehsPerHour="8.00"/>
<flow id="HV_49" type="HV_M" begin="0.00" departLane="free" departSpeed="avg" from="ent-WB610/NB169" to="exit-WB610/SB169-2" end="3600.00" vehsPerHour="23.00"/>
<flow id="HV_50" type="HV_M" begin="0.00" departLane="free" departSpeed="avg" from="ent-WB610" to="exit-WB610/SB169-2" end="3600.00" vehsPerHour="70.00"/>
<flow id="HV_51" type="HV_M" begin="0.00" departLane="free" departSpeed="avg" from="ent-WB610/River" to="exit-WB610/SB169-2" end="3600.00" vehsPerHour="20.00"/>
<flow id="HV_52" type="HV_M" begin="0.00" departLane="free" departSpeed="avg" from="ent-WB610/SBNoble" to="exit-WB610/SB169-2" end="3600.00" vehsPerHour="33.00"/>
<flow id="HV_53" type="HV_M" begin="0.00" departLane="free" departSpeed="avg" from="ent-WB610/SBZane" to="exit-WB610/NBZachary" end="3600.00" vehsPerHour="49.00"/>
<flow id="HV_54" type="HV_M" begin="0.00" departLane="free" departSpeed="avg" from="ent-WB610/Broadway" to="exit-WB610/NBZachary" end="3600.00" vehsPerHour="11.00"/>
<flow id="HV_55" type="HV_M" begin="0.00" departLane="free" departSpeed="avg" from="ent-WB610/Foley" to="exit-WB610/NBZachary" end="3600.00" vehsPerHour="30.00"/>
<flow id="HV_56" type="HV_M" begin="0.00" departLane="free" departSpeed="avg" from="ent-WB610/NB252" to="exit-WB610/NBZachary" end="3600.00" vehsPerHour="39.00"/>
<flow id="HV_57" type="HV_M" begin="0.00" departLane="free" departSpeed="avg" from="ent-WB610/CoonRapids" to="exit-WB610/NBZachary" end="3600.00" vehsPerHour="25.00"/>
<flow id="HV_58" type="HV_M" begin="0.00" departLane="free" departSpeed="avg" from="ent-WB610/University" to="exit-WB610/NBZachary" end="3600.00" vehsPerHour="38.00"/>
<flow id="HV_59" type="HV_M" begin="0.00" departLane="free" departSpeed="avg" from="ent-WB610/SB169" to="exit-WB610/NBZachary" end="3600.00" vehsPerHour="19.00"/>
<flow id="HV_60" type="HV_M" begin="0.00" departLane="free" departSpeed="avg" from="ent-WB610/SB47" to="exit-WB610/NBZachary" end="3600.00" vehsPerHour="25.00"/>
<flow id="HV_61" type="HV_M" begin="0.00" departLane="free" departSpeed="avg" from="ent-WB610/NB169" to="exit-WB610/NBZachary" end="3600.00" vehsPerHour="72.00"/>
<flow id="HV_62" type="HV_M" begin="0.00" departLane="free" departSpeed="avg" from="ent-WB610" to="exit-WB610/NBZachary" end="3600.00" vehsPerHour="216.00"/>
<flow id="HV_63" type="HV_M" begin="0.00" departLane="free" departSpeed="avg" from="ent-WB610/River" to="exit-WB610/NBZachary" end="3600.00" vehsPerHour="62.00"/>
<flow id="HV_64" type="HV_M" begin="0.00" departLane="free" departSpeed="avg" from="ent-WB610/SBNoble" to="exit-WB610/NBZachary" end="3600.00" vehsPerHour="102.00"/>
<flow id="HV_65" type="HV_M" begin="0.00" departLane="free" departSpeed="avg" from="ent-WB610/SBZane" to="exit-WB610/NBElmCreek" end="3600.00" vehsPerHour="19.00"/>
<flow id="HV_66" type="HV_M" begin="0.00" departLane="free" departSpeed="avg" from="ent-WB610/Broadway" to="exit-WB610/NBElmCreek" end="3600.00" vehsPerHour="4.00"/>
<flow id="HV_67" type="HV_M" begin="0.00" departLane="free" departSpeed="avg" from="ent-WB610/Foley" to="exit-WB610/NBElmCreek" end="3600.00" vehsPerHour="12.00"/>
<flow id="HV_68" type="HV_M" begin="0.00" departLane="free" departSpeed="avg" from="ent-WB610/NB252" to="exit-WB610/NBElmCreek" end="3600.00" vehsPerHour="15.00"/>
<flow id="HV_69" type="HV_M" begin="0.00" departLane="free" departSpeed="avg" from="ent-WB610/SB169" to="exit-WB610/NBElmCreek" end="3600.00" vehsPerHour="7.00"/>
<flow id="HV_70" type="HV_M" begin="0.00" departLane="free" departSpeed="avg" from="ent-WB610/SB47" to="exit-WB610/NBElmCreek" end="3600.00" vehsPerHour="10.00"/>
<flow id="HV_71" type="HV_M" begin="0.00" departLane="free" departSpeed="avg" from="ent-WB610/NB169" to="exit-WB610/NBElmCreek" end="3600.00" vehsPerHour="28.00"/>
<flow id="HV_72" type="HV_M" begin="0.00" departLane="free" departSpeed="avg" from="ent-WB610" to="exit-WB610/NBElmCreek" end="3600.00" vehsPerHour="84.00"/>
<flow id="HV_73" type="HV_M" begin="0.00" departLane="free" departSpeed="avg" from="ent-WB610/SBNoble" to="exit-WB610/NBElmCreek" end="3600.00" vehsPerHour="40.00"/>
<flow id="HV_74" type="HV_M" begin="0.00" departLane="free" departSpeed="avg" from="ent-WB610/CoonRapids" to="exit-WB610/NBElmCreek" end="3600.00" vehsPerHour="10.00"/>
<flow id="HV_75" type="HV_M" begin="0.00" departLane="free" departSpeed="avg" from="ent-WB610/University" to="exit-WB610/NBElmCreek" end="3600.00" vehsPerHour="15.00"/>
<flow id="HV_76" type="HV_M" begin="0.00" departLane="free" departSpeed="avg" from="ent-WB610/SBZachary" to="exit-WB610/NBElmCreek" end="3600.00" vehsPerHour="12.00"/>
<flow id="HV_77" type="HV_M" begin="0.00" departLane="free" departSpeed="avg" from="ent-WB610/River" to="exit-WB610/NBElmCreek" end="3600.00" vehsPerHour="24.00"/>
<flow id="HV_78" type="HV_M" begin="0.00" departLane="free" departSpeed="avg" from="ent-WB610/SBZane" to="exit-WB610/WB81-2" end="3600.00" vehsPerHour="37.00"/>
<flow id="HV_79" type="HV_M" begin="0.00" departLane="free" departSpeed="avg" from="ent-WB610/Broadway" to="exit-WB610/WB81-2" end="3600.00" vehsPerHour="8.00"/>
<flow id="HV_80" type="HV_M" begin="0.00" departLane="free" departSpeed="avg" from="ent-WB610/Foley" to="exit-WB610/WB81-2" end="3600.00" vehsPerHour="22.00"/>
<flow id="HV_81" type="HV_M" begin="0.00" departLane="free" departSpeed="avg" from="ent-WB610/NB252" to="exit-WB610/WB81-2" end="3600.00" vehsPerHour="30.00"/>
<flow id="HV_82" type="HV_M" begin="0.00" departLane="free" departSpeed="avg" from="ent-WB610/SB169" to="exit-WB610/WB81-2" end="3600.00" vehsPerHour="14.00"/>
<flow id="HV_83" type="HV_M" begin="0.00" departLane="free" departSpeed="avg" from="ent-WB610/SB47" to="exit-WB610/WB81-2" end="3600.00" vehsPerHour="19.00"/>
<flow id="HV_84" type="HV_M" begin="0.00" departLane="free" departSpeed="avg" from="ent-WB610/NB169" to="exit-WB610/WB81-2" end="3600.00" vehsPerHour="55.00"/>
<flow id="HV_85" type="HV_M" begin="0.00" departLane="free" departSpeed="avg" from="ent-WB610" to="exit-WB610/WB81-2" end="3600.00" vehsPerHour="164.00"/>
<flow id="HV_86" type="HV_M" begin="0.00" departLane="free" departSpeed="avg" from="ent-WB610/SBNoble" to="exit-WB610/WB81-2" end="3600.00" vehsPerHour="78.00"/>
<flow id="HV_87" type="HV_M" begin="0.00" departLane="free" departSpeed="avg" from="ent-WB610/CoonRapids" to="exit-WB610/WB81-2" end="3600.00" vehsPerHour="19.00"/>
<flow id="HV_88" type="HV_M" begin="0.00" departLane="free" departSpeed="avg" from="ent-WB610/University" to="exit-WB610/WB81-2" end="3600.00" vehsPerHour="29.00"/>
<flow id="HV_89" type="HV_M" begin="0.00" departLane="free" departSpeed="avg" from="ent-WB610/SBZachary" to="exit-WB610/WB81-2" end="3600.00" vehsPerHour="23.00"/>
<flow id="HV_90" type="HV_M" begin="0.00" departLane="free" departSpeed="avg" from="ent-WB610/River" to="exit-WB610/WB81-2" end="3600.00" vehsPerHour="47.00"/>
<flow id="HV_91" type="HV_M" begin="0.00" departLane="free" departSpeed="avg" from="ent-WB610/SBZane" to="exit-WB610-94" end="3600.00" vehsPerHour="152.00"/>
<flow id="HV_92" type="HV_M" begin="0.00" departLane="free" departSpeed="avg" from="ent-WB610/Broadway" to="exit-WB610-94" end="3600.00" vehsPerHour="34.00"/>
<flow id="HV_93" type="HV_M" begin="0.00" departLane="free" departSpeed="avg" from="ent-WB610/Foley" to="exit-WB610-94" end="3600.00" vehsPerHour="92.00"/>
<flow id="HV_94" type="HV_M" begin="0.00" departLane="free" departSpeed="avg" from="ent-WB610/NB252" to="exit-WB610-94" end="3600.00" vehsPerHour="122.00"/>
<flow id="HV_95" type="HV_M" begin="0.00" departLane="free" departSpeed="avg" from="ent-WB610/SB169" to="exit-WB610-94" end="3600.00" vehsPerHour="58.00"/>
<flow id="HV_96" type="HV_M" begin="0.00" departLane="free" departSpeed="avg" from="ent-WB610/SB47" to="exit-WB610-94" end="3600.00" vehsPerHour="79.00"/>
<flow id="HV_97" type="HV_M" begin="0.00" departLane="free" departSpeed="avg" from="ent-WB610/NB169" to="exit-WB610-94" end="3600.00" vehsPerHour="224.00"/>
<flow id="HV_98" type="HV_M" begin="0.00" departLane="free" departSpeed="avg" from="ent-WB610" to="exit-WB610-94" end="3600.00" vehsPerHour="669.00"/>
<flow id="HV_99" type="HV_M" begin="0.00" departLane="free" departSpeed="avg" from="ent-WB610/SBNoble" to="exit-WB610-94" end="3600.00" vehsPerHour="317.00"/>
<flow id="HV_100" type="HV_M" begin="0.00" departLane="free" departSpeed="avg" from="ent-WB610/SBMapleGrove" to="exit-WB610-94" end="3600.00" vehsPerHour="86.00"/>
<flow id="HV_101" type="HV_M" begin="0.00" departLane="free" departSpeed="avg" from="ent-WB610/CoonRapids" to="exit-WB610-94" end="3600.00" vehsPerHour="79.00"/>
<flow id="HV_102" type="HV_M" begin="0.00" departLane="free" departSpeed="avg" from="ent-WB610/University" to="exit-WB610-94" end="3600.00" vehsPerHour="119.00"/>
<flow id="HV_103" type="HV_M" begin="0.00" departLane="free" departSpeed="avg" from="ent-WB610/WB81" to="exit-WB610-94" end="3600.00" vehsPerHour="75.00"/>
<flow id="HV_104" type="HV_M" begin="0.00" departLane="free" departSpeed="avg" from="ent-WB610/SBZachary" to="exit-WB610-94" end="3600.00" vehsPerHour="94.00"/>
<flow id="HV_105" type="HV_M" begin="0.00" departLane="free" departSpeed="avg" from="ent-WB610/River" to="exit-WB610-94" end="3600.00" vehsPerHour="194.00"/>
<flow id="HV_106" type="HV_M" begin="0.00" departLane="free" departSpeed="avg" from="ent-EB610-94" to="exit-EB610/NBMapleGrove" end="3600.00" vehsPerHour="358.00"/>
<flow id="HV_107" type="HV_M" begin="0.00" departLane="free" departSpeed="avg" from="ent-EB610-94" to="exit-EB610/EB81" end="3600.00" vehsPerHour="613.00"/>
<flow id="HV_108" type="HV_M" begin="0.00" departLane="free" departSpeed="avg" from="ent-EB610/SBMapleGrove" to="exit-EB610/EB81" end="3600.00" vehsPerHour="109.00"/>
<flow id="HV_109" type="HV_M" begin="0.00" departLane="free" departSpeed="avg" from="ent-EB610-94" to="exit-EB610/SBZachary" end="3600.00" vehsPerHour="163.00"/>
<flow id="HV_110" type="HV_M" begin="0.00" departLane="free" departSpeed="avg" from="ent-EB610/EB81-2" to="exit-EB610/SBZachary" end="3600.00" vehsPerHour="24.00"/>
<flow id="HV_111" type="HV_M" begin="0.00" departLane="free" departSpeed="avg" from="ent-EB610/SBMapleGrove" to="exit-EB610/SBZachary" end="3600.00" vehsPerHour="29.00"/>
<flow id="HV_112" type="HV_M" begin="0.00" departLane="free" departSpeed="avg" from="ent-EB610-94" to="exit-EB610/SB169" end="3600.00" vehsPerHour="562.00"/>
<flow id="HV_113" type="HV_M" begin="0.00" departLane="free" departSpeed="avg" from="ent-EB610/EB81-2" to="exit-EB610/SB169" end="3600.00" vehsPerHour="83.00"/>
<flow id="HV_114" type="HV_M" begin="0.00" departLane="free" departSpeed="avg" from="ent-EB610/NBZachary" to="exit-EB610/SB169" end="3600.00" vehsPerHour="73.00"/>
<flow id="HV_115" type="HV_M" begin="0.00" departLane="free" departSpeed="avg" from="ent-EB610/SBMapleGrove" to="exit-EB610/SB169" end="3600.00" vehsPerHour="100.00"/>
<flow id="HV_116" type="HV_M" begin="0.00" departLane="free" departSpeed="avg" from="ent-EB610/SB169-2" to="exit-EB610/NB169" end="3600.00" vehsPerHour="82.00"/>
<flow id="HV_117" type="HV_M" begin="0.00" departLane="free" departSpeed="avg" from="ent-EB610-94" to="exit-EB610/NB169" end="3600.00" vehsPerHour="256.00"/>
<flow id="HV_118" type="HV_M" begin="0.00" departLane="free" departSpeed="avg" from="ent-EB610/EB81-2" to="exit-EB610/NB169" end="3600.00" vehsPerHour="38.00"/>
<flow id="HV_119" type="HV_M" begin="0.00" departLane="free" departSpeed="avg" from="ent-EB610/NBZachary" to="exit-EB610/NB169" end="3600.00" vehsPerHour="33.00"/>
<flow id="HV_120" type="HV_M" begin="0.00" departLane="free" departSpeed="avg" from="ent-EB610/SBMapleGrove" to="exit-EB610/NB169" end="3600.00" vehsPerHour="46.00"/>
<flow id="HV_121" type="HV_M" begin="0.00" departLane="free" departSpeed="avg" from="ent-EB610/SB169-2" to="exit-EB610/Broadway" end="3600.00" vehsPerHour="328.00"/>
<flow id="HV_122" type="HV_M" begin="0.00" departLane="free" departSpeed="avg" from="ent-EB610-94" to="exit-EB610/Broadway" end="3600.00" vehsPerHour="1023.00"/>
<flow id="HV_123" type="HV_M" begin="0.00" departLane="free" departSpeed="avg" from="ent-EB610/EB81-2" to="exit-EB610/Broadway" end="3600.00" vehsPerHour="150.00"/>
<flow id="HV_124" type="HV_M" begin="0.00" departLane="free" departSpeed="avg" from="ent-EB610/NBZachary" to="exit-EB610/Broadway" end="3600.00" vehsPerHour="133.00"/>
<flow id="HV_125" type="HV_M" begin="0.00" departLane="free" departSpeed="avg" from="ent-EB610/NB169-2" to="exit-EB610/Broadway" end="3600.00" vehsPerHour="88.00"/>
<flow id="HV_126" type="HV_M" begin="0.00" departLane="free" departSpeed="avg" from="ent-EB610/SBMapleGrove" to="exit-EB610/Broadway" end="3600.00" vehsPerHour="182.00"/>
<flow id="HV_127" type="HV_M" begin="0.00" departLane="free" departSpeed="avg" from="ent-EB610/SB169-2" to="exit-EB610/SBZane" end="3600.00" vehsPerHour="78.00"/>
<flow id="HV_128" type="HV_M" begin="0.00" departLane="free" departSpeed="avg" from="ent-EB610/NBBroadway" to="exit-EB610/SBZane" end="3600.00" vehsPerHour="24.00"/>
<flow id="HV_129" type="HV_M" begin="0.00" departLane="free" departSpeed="avg" from="ent-EB610-94" to="exit-EB610/SBZane" end="3600.00" vehsPerHour="244.00"/>
<flow id="HV_130" type="HV_M" begin="0.00" departLane="free" departSpeed="avg" from="ent-EB610/EB81-2" to="exit-EB610/SBZane" end="3600.00" vehsPerHour="36.00"/>
<flow id="HV_131" type="HV_M" begin="0.00" departLane="free" departSpeed="avg" from="ent-EB610/NBZachary" to="exit-EB610/SBZane" end="3600.00" vehsPerHour="32.00"/>
<flow id="HV_132" type="HV_M" begin="0.00" departLane="free" departSpeed="avg" from="ent-EB610/NB169-2" to="exit-EB610/SBZane" end="3600.00" vehsPerHour="21.00"/>
<flow id="HV_133" type="HV_M" begin="0.00" departLane="free" departSpeed="avg" from="ent-EB610/SBMapleGrove" to="exit-EB610/SBZane" end="3600.00" vehsPerHour="44.00"/>
<flow id="HV_134" type="HV_M" begin="0.00" departLane="free" departSpeed="avg" from="ent-EB610/SB169-2" to="exit-EB610/SBNoble" end="3600.00" vehsPerHour="51.00"/>
<flow id="HV_135" type="HV_M" begin="0.00" departLane="free" departSpeed="avg" from="ent-EB610/NBBroadway" to="exit-EB610/SBNoble" end="3600.00" vehsPerHour="16.00"/>
<flow id="HV_136" type="HV_M" begin="0.00" departLane="free" departSpeed="avg" from="ent-EB610/NBZane" to="exit-EB610/SBNoble" end="3600.00" vehsPerHour="35.00"/>
<flow id="HV_137" type="HV_M" begin="0.00" departLane="free" departSpeed="avg" from="ent-EB610-94" to="exit-EB610/SBNoble" end="3600.00" vehsPerHour="160.00"/>
<flow id="HV_138" type="HV_M" begin="0.00" departLane="free" departSpeed="avg" from="ent-EB610/EB81-2" to="exit-EB610/SBNoble" end="3600.00" vehsPerHour="23.00"/>
<flow id="HV_139" type="HV_M" begin="0.00" departLane="free" departSpeed="avg" from="ent-EB610/NBZachary" to="exit-EB610/SBNoble" end="3600.00" vehsPerHour="21.00"/>
<flow id="HV_140" type="HV_M" begin="0.00" departLane="free" departSpeed="avg" from="ent-EB610/NB169-2" to="exit-EB610/SBNoble" end="3600.00" vehsPerHour="14.00"/>
<flow id="HV_141" type="HV_M" begin="0.00" departLane="free" departSpeed="avg" from="ent-EB610/SBMapleGrove" to="exit-EB610/SBNoble" end="3600.00" vehsPerHour="28.00"/>
<flow id="HV_142" type="HV_M" begin="0.00" departLane="free" departSpeed="avg" from="ent-EB610/SB169-2" to="exit-EB610/SB252" end="3600.00" vehsPerHour="204.00"/>
<flow id="HV_143" type="HV_M" begin="0.00" departLane="free" departSpeed="avg" from="ent-EB610/NBBroadway" to="exit-EB610/SB252" end="3600.00" vehsPerHour="63.00"/>
<flow id="HV_144" type="HV_M" begin="0.00" departLane="free" departSpeed="avg" from="ent-EB610/NBZane" to="exit-EB610/SB252" end="3600.00" vehsPerHour="141.00"/>
<flow id="HV_145" type="HV_M" begin="0.00" departLane="free" departSpeed="avg" from="ent-EB610-94" to="exit-EB610/SB252" end="3600.00" vehsPerHour="636.00"/>
<flow id="HV_146" type="HV_M" begin="0.00" departLane="free" departSpeed="avg" from="ent-EB610/EB81-2" to="exit-EB610/SB252" end="3600.00" vehsPerHour="94.00"/>
<flow id="HV_147" type="HV_M" begin="0.00" departLane="free" departSpeed="avg" from="ent-EB610/NBZachary" to="exit-EB610/SB252" end="3600.00" vehsPerHour="83.00"/>
<flow id="HV_148" type="HV_M" begin="0.00" departLane="free" departSpeed="avg" from="ent-EB610/NBNoble" to="exit-EB610/SB252" end="3600.00" vehsPerHour="229.00"/>
<flow id="HV_149" type="HV_M" begin="0.00" departLane="free" departSpeed="avg" from="ent-EB610/NB169-2" to="exit-EB610/SB252" end="3600.00" vehsPerHour="54.00"/>
<flow id="HV_150" type="HV_M" begin="0.00" departLane="free" departSpeed="avg" from="ent-EB610/SBMapleGrove" to="exit-EB610/SB252" end="3600.00" vehsPerHour="113.00"/>
<flow id="HV_151" type="HV_M" begin="0.00" departLane="free" departSpeed="avg" from="ent-EB610/SB169-2" to="exit-EB610/River" end="3600.00" vehsPerHour="92.00"/>
<flow id="HV_152" type="HV_M" begin="0.00" departLane="free" departSpeed="avg" from="ent-EB610/NBBroadway" to="exit-EB610/River" end="3600.00" vehsPerHour="28.00"/>
<flow id="HV_153" type="HV_M" begin="0.00" departLane="free" departSpeed="avg" from="ent-EB610/NBZane" to="exit-EB610/River" end="3600.00" vehsPerHour="64.00"/>
<flow id="HV_154" type="HV_M" begin="0.00" departLane="free" departSpeed="avg" from="ent-EB610-94" to="exit-EB610/River" end="3600.00" vehsPerHour="286.00"/>
<flow id="HV_155" type="HV_M" begin="0.00" departLane="free" departSpeed="avg" from="ent-EB610/EB81-2" to="exit-EB610/River" end="3600.00" vehsPerHour="42.00"/>
<flow id="HV_156" type="HV_M" begin="0.00" departLane="free" departSpeed="avg" from="ent-EB610/NBZachary" to="exit-EB610/River" end="3600.00" vehsPerHour="37.00"/>
<flow id="HV_157" type="HV_M" begin="0.00" departLane="free" departSpeed="avg" from="ent-EB610/NBNoble" to="exit-EB610/River" end="3600.00" vehsPerHour="103.00"/>
<flow id="HV_158" type="HV_M" begin="0.00" departLane="free" departSpeed="avg" from="ent-EB610/NB252" to="exit-EB610/River" end="3600.00" vehsPerHour="188.00"/>
<flow id="HV_159" type="HV_M" begin="0.00" departLane="free" departSpeed="avg" from="ent-EB610/NB169-2" to="exit-EB610/River" end="3600.00" vehsPerHour="24.00"/>
<flow id="HV_160" type="HV_M" begin="0.00" departLane="free" departSpeed="avg" from="ent-EB610/SBMapleGrove" to="exit-EB610/River" end="3600.00" vehsPerHour="51.00"/>
<flow id="HV_161" type="HV_M" begin="0.00" departLane="free" departSpeed="avg" from="ent-EB610/SB169-2" to="exit-EB610/CoonRapids" end="3600.00" vehsPerHour="132.00"/>
<flow id="HV_162" type="HV_M" begin="0.00" departLane="free" departSpeed="avg" from="ent-EB610/NBBroadway" to="exit-EB610/CoonRapids" end="3600.00" vehsPerHour="41.00"/>
<flow id="HV_163" type="HV_M" begin="0.00" departLane="free" departSpeed="avg" from="ent-EB610/NBZane" to="exit-EB610/CoonRapids" end="3600.00" vehsPerHour="92.00"/>
<flow id="HV_164" type="HV_M" begin="0.00" departLane="free" departSpeed="avg" from="ent-EB610-94" to="exit-EB610/CoonRapids" end="3600.00" vehsPerHour="413.00"/>
<flow id="HV_165" type="HV_M" begin="0.00" departLane="free" departSpeed="avg" from="ent-EB610/EB81-2" to="exit-EB610/CoonRapids" end="3600.00" vehsPerHour="61.00"/>
<flow id="HV_166" type="HV_M" begin="0.00" departLane="free" departSpeed="avg" from="ent-EB610/NBZachary" to="exit-EB610/CoonRapids" end="3600.00" vehsPerHour="54.00"/>
<flow id="HV_167" type="HV_M" begin="0.00" departLane="free" departSpeed="avg" from="ent-EB610/NBNoble" to="exit-EB610/CoonRapids" end="3600.00" vehsPerHour="149.00"/>
<flow id="HV_168" type="HV_M" begin="0.00" departLane="free" departSpeed="avg" from="ent-EB610/NB252" to="exit-EB610/CoonRapids" end="3600.00" vehsPerHour="272.00"/>
<flow id="HV_169" type="HV_M" begin="0.00" departLane="free" departSpeed="avg" from="ent-EB610/NB169-2" to="exit-EB610/CoonRapids" end="3600.00" vehsPerHour="35.00"/>
<flow id="HV_170" type="HV_M" begin="0.00" departLane="free" departSpeed="avg" from="ent-EB610/SBMapleGrove" to="exit-EB610/CoonRapids" end="3600.00" vehsPerHour="74.00"/>
<flow id="HV_171" type="HV_M" begin="0.00" departLane="free" departSpeed="avg" from="ent-EB610/SB169-2" to="exit-EB610/NB47" end="3600.00" vehsPerHour="46.00"/>
<flow id="HV_172" type="HV_M" begin="0.00" departLane="free" departSpeed="avg" from="ent-EB610/NBBroadway" to="exit-EB610/NB47" end="3600.00" vehsPerHour="14.00"/>
<flow id="HV_173" type="HV_M" begin="0.00" departLane="free" departSpeed="avg" from="ent-EB610/NBZane" to="exit-EB610/NB47" end="3600.00" vehsPerHour="32.00"/>
<flow id="HV_174" type="HV_M" begin="0.00" departLane="free" departSpeed="avg" from="ent-EB610-94" to="exit-EB610/NB47" end="3600.00" vehsPerHour="143.00"/>
<flow id="HV_175" type="HV_M" begin="0.00" departLane="free" departSpeed="avg" from="ent-EB610/EB81-2" to="exit-EB610/NB47" end="3600.00" vehsPerHour="21.00"/>
<flow id="HV_176" type="HV_M" begin="0.00" departLane="free" departSpeed="avg" from="ent-EB610/NBZachary" to="exit-EB610/NB47" end="3600.00" vehsPerHour="19.00"/>
<flow id="HV_177" type="HV_M" begin="0.00" departLane="free" departSpeed="avg" from="ent-EB610/NBNoble" to="exit-EB610/NB47" end="3600.00" vehsPerHour="52.00"/>
<flow id="HV_178" type="HV_M" begin="0.00" departLane="free" departSpeed="avg" from="ent-EB610/NB252" to="exit-EB610/NB47" end="3600.00" vehsPerHour="94.00"/>
<flow id="HV_179" type="HV_M" begin="0.00" departLane="free" departSpeed="avg" from="ent-EB610/NB169-2" to="exit-EB610/NB47" end="3600.00" vehsPerHour="12.00"/>
<flow id="HV_180" type="HV_M" begin="0.00" departLane="free" departSpeed="avg" from="ent-EB610/SBMapleGrove" to="exit-EB610/NB47" end="3600.00" vehsPerHour="26.00"/>
<flow id="HV_181" type="HV_M" begin="0.00" departLane="free" departSpeed="avg" from="ent-EB610/SB169-2" to="exit-EB610/NBUniversity" end="3600.00" vehsPerHour="27.00"/>
<flow id="HV_182" type="HV_M" begin="0.00" departLane="free" departSpeed="avg" from="ent-EB610/NBBroadway" to="exit-EB610/NBUniversity" end="3600.00" vehsPerHour="8.00"/>