<?xml version="1.0" encoding="UTF-8"?>

<!-- generated on 2025-03-03 13:57:23 by Eclipse SUMO netedit Version 1.18.0
-->

<routes>

    <vType id="ACC_AMax_M" length="5.00" minGap="6.30" maxSpeed="44.10" speedFactor="normc(1.00,0.10,0.20,2.00)" color="blue" lcAssertive="5" carFollowModel="IDM" accel="0.6" decel="5.2" tau="2.2" delta="15.5"/>
    <vType id="ACC_AMax_R" length="5.00" minGap="6.30" maxSpeed="44.10" speedFactor="normc(1.00,0.10,0.20,2.00)" color="white" lcAssertive="1" carFollowModel="IDM" accel="0.6" decel="5.2" tau="2.2" delta="15.5"/>
    <vType id="AV_M" length="5.00" minGap="2.50" maxSpeed="44.10" speedFactor="normc(1.00,0.10,0.20,2.00)" color="red" lcAssertive="5" carFollowModel="IDM" accel="1.70" decel="2" tau="0.5" delta="4"/>
    <vType id="AV_R" length="5.00" minGap="2.50" maxSpeed="44.10" speedFactor="normc(1.00,0.10,0.20,2.00)" color="red" lcAssertive="5" carFollowModel="IDM" accel="1.70" decel="2" tau="0.5" delta="4"/>
    <vType id="HV_M" length="5.00" minGap="3.40" maxSpeed="44.10" speedFactor="normc(1.00,0.10,0.20,2.00)" color="yellow" lcAssertive="5" carFollowModel="IDM" accel="1.06" decel="1.11" tau="1.26" delta="4"/>
    <vType id="HV_R" length="5.00" minGap="3.40" maxSpeed="44.10" speedFactor="normc(1.00,0.10,0.20,2.00)" color="yellow" lcAssertive="5" carFollowModel="IDM" accel="1.06" decel="1.11" tau="1.26" delta="4"/>
    <vType id="HV_R_ACC" length="5.00" minGap="3.40" maxSpeed="44.10" speedFactor="normc(1.00,0.10,0.20,2.00)" color="green" lcAssertive="5" carFollowModel="IDM" accel="1.06" decel="1.11" tau="1.26" delta="4"/>


    <!-- Time Duration: 0-600 -->
    <!-- Entry: "entry" (Total: 2727.36 veh/h ’ All to HV) -->
    <flow id="HV_M1" type="HV_M" begin="0.00" departLane="free" departSpeed="avg" from="entry" to="exit" end="600.00" vehsPerHour="2727.36"/>

    <!-- Entry: "rampStart" (Total: 408.00 veh/h ’ All to HV) -->
    <flow id="HV_R1_1" type="HV_R" begin="0.00" departLane="free" departSpeed="avg" from="rampStart" to="exit" end="600.00" vehsPerHour="408.00"/>

    <!-- Entry: "ramp2Start" (Total: 408.00 veh/h ’ All to HV) -->
    <flow id="HV_R2_1" type="HV_R" begin="0.00" departLane="free" departSpeed="avg" from="ramp2Start" to="exit" end="600.00" vehsPerHour="408.00"/>

    <!-- Time Duration: 600-1200 -->
    <!-- Entry: "entry" (Total: 3066.57 veh/h ’ All to HV) -->
    <flow id="HV_M2" type="HV_M" begin="600.00" departLane="free" departSpeed="avg" from="entry" to="exit" end="1200.00" vehsPerHour="3066.57"/>

    <!-- Entry: "rampStart" (Total: 342.00 veh/h ’ All to HV) -->
    <flow id="HV_R1_2" type="HV_R" begin="600.00" departLane="free" departSpeed="avg" from="rampStart" to="exit" end="1200.00" vehsPerHour="342.00"/>

    <!-- Entry: "ramp2Start" (Total: 342.00 veh/h ’ All to HV) -->
    <flow id="HV_R2_2" type="HV_R" begin="600.00" departLane="free" departSpeed="avg" from="ramp2Start" to="exit" end="1200.00" vehsPerHour="342.00"/>

    <!-- Time Duration: 1200-1800 -->
    <!-- Entry: "entry" (Total: 2970.28 veh/h ’ All to HV) -->
    <flow id="HV_M3" type="HV_M" begin="1200.00" departLane="free" departSpeed="avg" from="entry" to="exit" end="1800.00" vehsPerHour="2970.28"/>

    <!-- Entry: "rampStart" (Total: 408.00 veh/h ’ All to HV) -->
    <flow id="HV_R1_3" type="HV_R" begin="1200.00" departLane="free" departSpeed="avg" from="rampStart" to="exit" end="1800.00" vehsPerHour="408.00"/>

    <!-- Entry: "ramp2Start" (Total: 408.00 veh/h ’ All to HV) -->
    <flow id="HV_R2_3" type="HV_R" begin="1200.00" departLane="free" departSpeed="avg" from="ramp2Start" to="exit" end="1800.00" vehsPerHour="408.00"/>

    <!-- Time Duration: 1800-2400 -->
    <!-- Entry: "entry" (Total: 2993.39 veh/h ’ All to HV) -->
    <flow id="HV_M4" type="HV_M" begin="1800.00" departLane="free" departSpeed="avg" from="entry" to="exit" end="2400.00" vehsPerHour="2993.39"/>

    <!-- Entry: "rampStart" (Total: 323.00 veh/h ’ All to HV) -->
    <flow id="HV_R1_4" type="HV_R" begin="1800.00" departLane="free" departSpeed="avg" from="rampStart" to="exit" end="2400.00" vehsPerHour="323.00"/>

    <!-- Entry: "ramp2Start" (Total: 323.00 veh/h ’ All to HV) -->
    <flow id="HV_R2_4" type="HV_R" begin="1800.00" departLane="free" departSpeed="avg" from="ramp2Start" to="exit" end="2400.00" vehsPerHour="323.00"/>

    <!-- Time Duration: 2400-3000 -->
    <!-- Entry: "entry" (Total: 2895.55 veh/h ’ All to HV) -->
    <flow id="HV_M5" type="HV_M" begin="2400.00" departLane="free" departSpeed="avg" from="entry" to="exit" end="3000.00" vehsPerHour="2895.55"/>

    <!-- Entry: "rampStart" (Total: 323.00 veh/h ’ All to HV) -->
    <flow id="HV_R1_5" type="HV_R" begin="2400.00" departLane="free" departSpeed="avg" from="rampStart" to="exit" end="3000.00" vehsPerHour="323.00"/>

    <!-- Entry: "ramp2Start" (Total: 323.00 veh/h ’ All to HV) -->
    <flow id="HV_R2_5" type="HV_R" begin="2400.00" departLane="free" departSpeed="avg" from="ramp2Start" to="exit" end="3000.00" vehsPerHour="323.00"/>

    <!-- Time Duration: 3000-3600 -->
    <!-- Entry: "entry" (Total: 2850.10 veh/h ’ All to HV) -->
    <flow id="HV_M6" type="HV_M" begin="3000.00" departLane="free" departSpeed="avg" from="entry" to="exit" end="3600.00" vehsPerHour="2850.10"/>

    <!-- Entry: "rampStart" (Total: 372.01 veh/h ’ All to HV) -->
    <flow id="HV_R1_6" type="HV_R" begin="3000.00" departLane="free" departSpeed="avg" from="rampStart" to="exit" end="3600.00" vehsPerHour="372.01"/>

    <!-- Entry: "ramp2Start" (Total: 372.01 veh/h ’ All to HV) -->
    <flow id="HV_R2_6" type="HV_R" begin="3000.00" departLane="free" departSpeed="avg" from="ramp2Start" to="exit" end="3600.00" vehsPerHour="372.01"/>
</routes>