<?xml version="1.0" encoding="UTF-8"?>

<!-- generated on 2025-02-03 15:24:19 by Eclipse SUMO sumo Version 1.18.0
-->

<configuration xmlns:xsi="http://www.w3.org/2001/XMLSchema-instance" xsi:noNamespaceSchemaLocation="http://sumo.dlr.de/xsd/sumoConfiguration.xsd">

    <input>
        <net-file value="site_trial.net.xml"/>
        <route-files value="MD_fullHV.rou.xml"/>
        <additional-files value="detectors.xml"/>
    </input>

</configuration>
