<?xml version="1.0" encoding="UTF-8"?>

<!-- generated on 2025-06-27 10:09:07 by Eclipse SUMO netedit Version 1.22.0
<neteditConfiguration xmlns:xsi="http://www.w3.org/2001/XMLSchema-instance" xsi:noNamespaceSchemaLocation="http://sumo.dlr.de/xsd/neteditConfiguration.xsd">

    <input>
        <sumo-net-file value="/Users/michael/Documents/NetbeansProjects/IRIS2/sumo code/site_trial.net.xml"/>
    </input>

    <output>
        <output-file value="/Users/michael/Documents/NetbeansProjects/IRIS2/sumo code/site_trial.net.xml"/>
    </output>

    <processing>
        <geometry.min-radius.fix.railways value="false"/>
        <geometry.max-grade.fix value="false"/>
        <offset.disable-normalization value="true"/>
        <lefthand value="0"/>
    </processing>

    <junctions>
        <no-turnarounds value="true"/>
        <junctions.corner-detail value="5"/>
        <junctions.limit-turn-speed value="5.50"/>
        <rectangular-lane-cut value="0"/>
    </junctions>

    <pedestrian>
        <walkingareas value="0"/>
    </pedestrian>

</neteditConfiguration>
-->

<net version="1.20" junctionCornerDetail="5" limitTurnSpeed="5.50" xmlns:xsi="http://www.w3.org/2001/XMLSchema-instance" xsi:noNamespaceSchemaLocation="http://sumo.dlr.de/xsd/net_file.xsd">

    <location netOffset="0.00,0.00" convBoundary="-143.75,-304.31,12.43,250.59" origBoundary="-10000000000.00,-10000000000.00,10000000000.00,10000000000.00" projParameter="!"/>

    <edge id=":J0_0" function="internal">
        <lane id=":J0_0_0" index="0" speed="26.82" length="0.28" shape="0.47,-245.65 0.46,-245.91"/>
        <lane id=":J0_0_1" index="1" speed="26.82" length="0.28" shape="3.67,-245.78 3.65,-246.09"/>
    </edge>
    <edge id=":J1_0" function="internal">
        <lane id=":J1_0_0" index="0" speed="26.82" length="0.30" shape="7.63,146.98 7.63,146.70"/>
        <lane id=":J1_0_1" index="1" speed="26.82" length="0.30" shape="10.83,146.99 10.83,146.68"/>
    </edge>
    <edge id=":J10_0" function="internal">
        <lane id=":J10_0_0" index="0" speed="20.12" length="8.40" shape="-130.68,60.99 -129.95,58.59 -130.18,56.72 -130.43,54.84 -129.71,52.44"/>
        <lane id=":J10_0_1" index="1" speed="20.12" length="8.40" shape="-130.68,60.99 -126.89,53.94"/>
    </edge>
    <edge id=":J2_0" function="internal">
        <lane id=":J2_0_0" index="0" speed="26.82" length="3.92" shape="6.97,55.83 7.05,51.92"/>
        <lane id=":J2_0_1" index="1" speed="26.82" length="3.92" shape="10.17,55.80 10.25,51.88"/>
    </edge>
    <edge id=":J2_2" function="internal">
        <lane id=":J2_2_0" index="0" speed="26.82" length="3.52" shape="3.46,55.44 3.69,54.42 3.81,53.72 3.86,53.00 3.85,51.96"/>
    </edge>
    <edge id=":J3_0" function="internal">
        <lane id=":J3_0_0" index="0" speed="26.82" length="8.03" shape="-21.90,149.81 -20.70,147.73 -19.23,146.64 -17.82,145.54 -16.81,143.41"/>
        <lane id=":J3_0_1" index="1" speed="26.82" length="8.03" shape="-18.86,150.80 -18.16,148.63 -17.71,147.14 -17.33,145.62 -16.81,143.41"/>
    </edge>
    <edge id=":J4_0" function="internal">
        <lane id=":J4_0_0" index="0" speed="26.82" length="8.00" shape="6.15,-23.78 6.05,-31.78"/>
        <lane id=":J4_0_1" index="1" speed="26.82" length="8.00" shape="9.35,-23.82 9.25,-31.82"/>
    </edge>
    <edge id=":J5_0" function="internal">
        <lane id=":J5_0_0" index="0" speed="26.82" length="5.65" shape="5.05,-107.75 5.00,-113.38"/>
        <lane id=":J5_0_1" index="1" speed="26.82" length="5.65" shape="8.25,-107.80 8.20,-113.48"/>
    </edge>
    <edge id=":J5_2" function="internal">
        <lane id=":J5_2_0" index="0" speed="6.89" length="5.15" shape="-0.27,-108.78 0.66,-109.71 1.32,-110.78 1.70,-111.97 1.80,-113.29"/>
    </edge>
    <edge id=":J6_0" function="internal">
        <lane id=":J6_0_0" index="0" speed="20.12" length="7.74" shape="-38.99,211.18 -38.52,208.98 -39.00,207.32 -39.56,205.63 -39.33,203.32"/>
        <lane id=":J6_0_1" index="1" speed="20.12" length="7.74" shape="-38.99,211.18 -38.08,209.19 -37.49,207.81 -36.98,206.40 -36.29,204.31"/>
    </edge>
    <edge id=":J7_0" function="internal">
        <lane id=":J7_0_0" index="0" speed="26.82" length="0.40" shape="7.49,214.39 7.50,214.33 7.50,214.29 7.50,214.25 7.50,214.19"/>
        <lane id=":J7_0_1" index="1" speed="26.82" length="0.40" shape="10.66,214.79 10.68,214.62 10.70,214.50 10.70,214.38 10.70,214.20"/>
    </edge>
    <edge id=":J8_0" function="internal">
        <lane id=":J8_0_0" index="0" speed="26.82" length="8.00" shape="3.30,-172.32 3.03,-180.30"/>
        <lane id=":J8_0_1" index="1" speed="26.82" length="8.00" shape="6.50,-172.41 6.22,-180.43"/>
    </edge>
    <edge id=":J9_0" function="internal">
        <lane id=":J9_0_0" index="0" speed="26.82" length="9.24" shape="-75.24,-49.71 -73.52,-51.86 -71.68,-52.68 -69.56,-53.27 -67.02,-54.74"/>
        <lane id=":J9_0_1" index="1" speed="26.82" length="9.24" shape="-72.41,-48.20 -71.19,-50.43 -70.20,-51.87 -68.97,-53.12 -67.02,-54.74"/>
    </edge>

    <edge id="endSeg" from="J8" to="J0" priority="-1" length="1500.00">
        <lane id="endSeg_0" index="0" speed="26.82" length="1500.00" shape="3.03,-180.30 0.47,-245.65"/>
        <lane id="endSeg_1" index="1" speed="26.82" length="1500.00" shape="6.22,-180.43 3.67,-245.78"/>
    </edge>
    <edge id="entry" from="J7" to="J1" priority="-1" length="3950.00">
        <lane id="entry_0" index="0" speed="26.82" length="3950.00" shape="7.50,214.19 7.63,146.98"/>
        <lane id="entry_1" index="1" speed="26.82" length="3950.00" shape="10.70,214.20 10.83,146.99"/>
    </edge>
    <edge id="exit" from="J0" to="J11" priority="-1" length="400.00">
        <lane id="exit_0" index="0" speed="26.82" length="400.00" shape="0.46,-245.91 -2.84,-304.04"/>
        <lane id="exit_1" index="1" speed="26.82" length="400.00" shape="3.65,-246.09 0.35,-304.22"/>
    </edge>
    <edge id="main_ent" from="J14" to="J7" length="200" priority="-1">
        <lane id="main_ent_0" index="0" speed="26.82" length="200" shape="2.98,249.99 7.49,214.39"/>
        <lane id="main_ent_1" index="1" speed="26.82" length="200" shape="6.15,250.39 10.66,214.79"/>
    </edge>
    <edge id="merge1" from="J2" to="J4" priority="-1" length="100.00">
        <lane id="merge1_0" index="0" speed="26.82" length="100.00" acceleration="1" shape="3.85,51.96 2.95,-23.74"/>
        <lane id="merge1_1" index="1" speed="26.82" length="100.00" shape="7.05,51.92 6.15,-23.78"/>
        <lane id="merge1_2" index="2" speed="26.82" length="100.00" shape="10.25,51.88 9.35,-23.82"/>
    </edge>
    <edge id="merge2" from="J5" to="J8" priority="-1" length="100.00">
        <lane id="merge2_0" index="0" speed="26.82" length="100.00" acceleration="1" shape="1.80,-113.29 0.10,-172.23"/>
        <lane id="merge2_1" index="1" speed="26.82" length="100.00" shape="5.00,-113.38 3.30,-172.32"/>
        <lane id="merge2_2" index="2" speed="26.82" length="100.00" shape="8.20,-113.48 6.50,-172.41"/>
    </edge>
    <edge id="ramp2End" from="J9" to="J5" priority="-1" length="220.00">
        <lane id="ramp2End_0" index="0" speed="26.82" length="220.00" shape="-67.02,-54.74 -0.27,-108.78"/>
    </edge>
    <edge id="ramp2Start" from="J10" to="J9" priority="-1" length="200.00">
        <lane id="ramp2Start_0" index="0" speed="20.12" length="200.00" shape="-129.71,52.44 -75.24,-49.71"/>
        <lane id="ramp2Start_1" index="1" speed="20.12" length="200.00" shape="-126.89,53.94 -72.41,-48.20"/>
    </edge>
    <edge id="rampEnd" from="J3" to="J2" priority="-1" length="220.00">
        <lane id="rampEnd_0" index="0" speed="26.82" length="220.00" shape="-16.81,143.41 3.46,55.44"/>
    </edge>
    <edge id="rampStart" from="J6" to="J3" priority="-1" length="200.00">
        <lane id="rampStart_0" index="0" speed="20.12" length="200.00" shape="-39.33,203.32 -21.90,149.81"/>
        <lane id="rampStart_1" index="1" speed="20.12" length="200.00" shape="-36.29,204.31 -18.86,150.80"/>
    </edge>
    <edge id="ramp_ent" from="J12" to="J6" priority="-1" length="200.00">
        <lane id="ramp_ent_0" index="0" speed="20.12" length="200.00" shape="-54.31,244.33 -38.99,211.18"/>
    </edge>
    <edge id="ramp_ent2" from="J13" to="J10" priority="-1" length="200.00">
        <lane id="ramp_ent2_0" index="0" speed="20.12" length="200.00" shape="-145.16,87.67 -130.68,60.99"/>
    </edge>
    <edge id="startSeg" from="J1" to="J2" priority="-1" length="1500.00">
        <lane id="startSeg_0" index="0" speed="26.82" length="1500.00" shape="7.63,146.70 6.97,55.83"/>
        <lane id="startSeg_1" index="1" speed="26.82" length="1500.00" shape="10.83,146.68 10.17,55.80"/>
    </edge>
    <edge id="switchACC" from="J4" to="J5" priority="-1" length="1500.00">
        <lane id="switchACC_0" index="0" speed="26.82" length="1500.00" shape="6.05,-31.78 5.05,-107.75"/>
        <lane id="switchACC_1" index="1" speed="26.82" length="1500.00" shape="9.25,-31.82 8.25,-107.80"/>
    </edge>

    <tlLogic id="J3" type="static" programID="0" offset="0">
        <phase duration="3600" state="GG"/>
        <phase duration="3600"  state="rr"/>
        <phase duration="360"  state="Gr"/>
        <phase duration="3600"  state="rG"/>
    </tlLogic>
    <tlLogic id="J9" type="static" programID="0" offset="0">
         <phase duration="3600" state="GG"/>
        <phase duration="3600"  state="rr"/>
        <phase duration="360"  state="Gr"/>
        <phase duration="3600"  state="rG"/>
    </tlLogic>

    <junction id="J0" type="priority" x="5.26" y="-246.01" incLanes="endSeg_0 endSeg_1" intLanes=":J0_0_0 :J0_0_1" shape="-1.13,-245.59 5.27,-245.84 5.25,-246.18 -1.14,-245.82">
        <request index="0" response="00" foes="00" cont="0"/>
        <request index="1" response="00" foes="00" cont="0"/>
    </junction>
    <junction id="J1" type="priority" x="12.43" y="146.83" incLanes="entry_0 entry_1" intLanes=":J1_0_0 :J1_0_1" shape="12.43,146.67 6.03,146.71 6.03,146.98 12.43,146.99">
        <request index="0" response="00" foes="00" cont="0"/>
        <request index="1" response="00" foes="00" cont="0"/>
    </junction>
    <junction id="J10" type="priority" x="-127.36" y="58.23" incLanes="ramp_ent2_0" intLanes=":J10_0_0 :J10_0_1" shape="-125.48,54.70 -131.12,51.68 -131.82,54.75 -131.59,55.96 -131.37,57.18 -131.44,58.55 -132.09,60.23 -129.27,61.75">
        <request index="0" response="00" foes="00" cont="0"/>
        <request index="1" response="00" foes="00" cont="0"/>
    </junction>
    <junction id="J11" type="dead_end" x="1.95" y="-304.31" incLanes="exit_0 exit_1" intLanes="" shape="-4.44,-303.95 1.95,-304.31"/>
    <junction id="J12" type="dead_end" x="-52.86" y="245.00" incLanes="" intLanes="" shape="-52.86,245.00 -55.76,243.66"/>
    <junction id="J13" type="dead_end" x="-143.75" y="88.43" incLanes="" intLanes="" shape="-143.75,88.43 -146.56,86.90"/>
    <junction id="J14" type="dead_end" x="7.74" y="250.59" incLanes="" intLanes="" shape="7.74,250.59 1.39,249.79"/>
    <junction id="J2" type="priority" x="11.56" y="27.42" incLanes="startSeg_0 startSeg_1 rampEnd_0" intLanes=":J2_0_0 :J2_0_1 :J2_2_0" shape="5.37,55.84 11.77,55.79 11.85,51.86 2.25,51.98 2.25,53.14 2.22,53.55 2.15,53.95 2.05,54.43 1.90,55.08 5.02,55.80">
        <request index="0" response="000" foes="000" cont="0"/>
        <request index="1" response="000" foes="000" cont="0"/>
        <request index="2" response="000" foes="000" cont="0"/>
    </junction>
    <junction id="J3" type="traffic_light" x="-16.14" y="147.61" incLanes="rampStart_0 rampStart_1" intLanes=":J3_0_0 :J3_0_1" shape="-15.25,143.76 -18.37,143.05 -19.81,145.56 -20.77,146.22 -21.76,146.86 -22.68,147.79 -23.43,149.31 -17.34,151.30 -16.46,148.54 -16.17,147.56 -15.92,146.58 -15.63,145.39">
        <request index="0" response="10" foes="10" cont="0"/>
        <request index="1" response="00" foes="01" cont="0"/>
    </junction>
    <junction id="J4" type="priority" x="10.90" y="-27.84" incLanes="merge1_0 merge1_1 merge1_2" intLanes=":J4_0_0 :J4_0_1" shape="1.35,-23.72 10.95,-23.84 10.85,-31.84 4.45,-31.76 3.66,-28.72 2.14,-26.76 1.56,-25.51">
        <request index="0" response="00" foes="00" cont="0"/>
        <request index="1" response="00" foes="00" cont="0"/>
    </junction>
    <junction id="J5" type="priority" x="9.76" y="-114.84" incLanes="switchACC_0 switchACC_1 ramp2End_0" intLanes=":J5_0_0 :J5_0_1 :J5_2_0" shape="3.45,-107.73 9.85,-107.82 9.80,-113.52 0.20,-113.24 0.06,-112.01 -0.14,-111.45 -0.43,-110.93 -0.81,-110.46 -1.28,-110.02 0.73,-107.53 2.23,-108.52 2.76,-108.67 3.14,-108.59 3.37,-108.28">
        <request index="0" response="000" foes="000" cont="0"/>
        <request index="1" response="000" foes="000" cont="0"/>
        <request index="2" response="000" foes="000" cont="0"/>
    </junction>
    <junction id="J6" type="priority" x="-35.93" y="208.37" incLanes="ramp_ent_0" intLanes=":J6_0_0 :J6_0_1" shape="-34.77,204.81 -40.86,202.83 -40.92,205.67 -40.49,206.73 -40.10,207.78 -40.00,208.98 -40.45,210.51 -37.54,211.86 -36.38,209.30 -36.00,208.39 -35.66,207.47 -35.27,206.34">
        <request index="0" response="00" foes="00" cont="0"/>
        <request index="1" response="00" foes="00" cont="0"/>
    </junction>
    <junction id="J7" type="priority" x="12.30" y="214.60" incLanes="main_ent_0 main_ent_1" intLanes=":J7_0_0 :J7_0_1" shape="12.30,214.20 5.90,214.19 12.25,214.99 12.29,214.70 12.29,214.60 12.30,214.50">
        <request index="0" response="00" foes="00" cont="0"/>
        <request index="1" response="00" foes="00" cont="0"/>
    </junction>
    <junction id="J8" type="priority" x="7.98" y="-176.47" incLanes="merge2_0 merge2_1 merge2_2" intLanes=":J8_0_0 :J8_0_1" shape="-1.50,-172.18 8.10,-172.46 7.82,-180.49 1.43,-180.24 0.72,-177.20 -0.02,-176.21 -0.76,-175.22 -1.31,-173.97">
        <request index="0" response="00" foes="00" cont="0"/>
        <request index="1" response="00" foes="00" cont="0"/>
    </junction>
    <junction id="J9" type="traffic_light" x="-69.12" y="-50.98" incLanes="ramp2Start_0 ramp2Start_1" intLanes=":J9_0_0 :J9_0_1" shape="-66.01,-53.50 -68.02,-55.98 -69.88,-54.77 -71.49,-54.12 -72.93,-53.71 -74.23,-53.19 -75.45,-52.22 -76.65,-50.46 -71.00,-47.45 -69.57,-50.01 -68.96,-50.85 -68.25,-51.60 -67.31,-52.43">
        <request index="0" response="10" foes="10" cont="0"/>
        <request index="1" response="00" foes="01" cont="0"/>
    </junction>

    <connection from="endSeg" to="exit" fromLane="0" toLane="0" via=":J0_0_0" dir="s" state="M"/>
    <connection from="endSeg" to="exit" fromLane="1" toLane="1" via=":J0_0_1" dir="s" state="M"/>
    <connection from="entry" to="startSeg" fromLane="0" toLane="0" via=":J1_0_0" dir="s" state="M"/>
    <connection from="entry" to="startSeg" fromLane="1" toLane="1" via=":J1_0_1" dir="s" state="M"/>
    <connection from="main_ent" to="entry" fromLane="0" toLane="0" via=":J7_0_0" dir="s" state="M"/>
    <connection from="main_ent" to="entry" fromLane="1" toLane="1" via=":J7_0_1" dir="s" state="M"/>
    <connection from="merge1" to="switchACC" fromLane="1" toLane="0" via=":J4_0_0" dir="s" state="M"/>
    <connection from="merge1" to="switchACC" fromLane="2" toLane="1" via=":J4_0_1" dir="s" state="M"/>
    <connection from="merge2" to="endSeg" fromLane="1" toLane="0" via=":J8_0_0" dir="s" state="M"/>
    <connection from="merge2" to="endSeg" fromLane="2" toLane="1" via=":J8_0_1" dir="s" state="M"/>
    <connection from="ramp2End" to="merge2" fromLane="0" toLane="0" via=":J5_2_0" dir="r" state="M"/>
    <connection from="ramp2Start" to="ramp2End" fromLane="0" toLane="0" speed="26.82" via=":J9_0_0" tl="J9" linkIndex="0" dir="s" state="o"/>
    <connection from="ramp2Start" to="ramp2End" fromLane="1" toLane="0" speed="26.82" via=":J9_0_1" tl="J9" linkIndex="1" dir="s" state="O"/>
    <connection from="rampEnd" to="merge1" fromLane="0" toLane="0" via=":J2_2_0" dir="s" state="M"/>
    <connection from="rampStart" to="rampEnd" fromLane="0" toLane="0" speed="26.82" via=":J3_0_0" tl="J3" linkIndex="0" dir="s" state="o"/>
    <connection from="rampStart" to="rampEnd" fromLane="1" toLane="0" speed="26.82" via=":J3_0_1" tl="J3" linkIndex="1" dir="s" state="O"/>
    <connection from="ramp_ent" to="rampStart" fromLane="0" toLane="0" via=":J6_0_0" dir="s" state="M"/>
    <connection from="ramp_ent" to="rampStart" fromLane="0" toLane="1" via=":J6_0_1" dir="s" state="M"/>
    <connection from="ramp_ent2" to="ramp2Start" fromLane="0" toLane="0" via=":J10_0_0" dir="s" state="M"/>
    <connection from="ramp_ent2" to="ramp2Start" fromLane="0" toLane="1" via=":J10_0_1" dir="s" state="M"/>
    <connection from="startSeg" to="merge1" fromLane="0" toLane="1" via=":J2_0_0" dir="s" state="M"/>
    <connection from="startSeg" to="merge1" fromLane="1" toLane="2" via=":J2_0_1" dir="s" state="M"/>
    <connection from="switchACC" to="merge2" fromLane="0" toLane="1" via=":J5_0_0" dir="s" state="M"/>
    <connection from="switchACC" to="merge2" fromLane="1" toLane="2" via=":J5_0_1" dir="s" state="M"/>

    <connection from=":J0_0" to="exit" fromLane="0" toLane="0" dir="s" state="M"/>
    <connection from=":J0_0" to="exit" fromLane="1" toLane="1" dir="s" state="M"/>
    <connection from=":J1_0" to="startSeg" fromLane="0" toLane="0" dir="s" state="M"/>
    <connection from=":J1_0" to="startSeg" fromLane="1" toLane="1" dir="s" state="M"/>
    <connection from=":J10_0" to="ramp2Start" fromLane="0" toLane="0" dir="s" state="M"/>
    <connection from=":J10_0" to="ramp2Start" fromLane="1" toLane="1" dir="s" state="M"/>
    <connection from=":J2_0" to="merge1" fromLane="0" toLane="1" dir="s" state="M"/>
    <connection from=":J2_0" to="merge1" fromLane="1" toLane="2" dir="s" state="M"/>
    <connection from=":J2_2" to="merge1" fromLane="0" toLane="0" dir="s" state="M"/>
    <connection from=":J3_0" to="rampEnd" fromLane="0" toLane="0" dir="s" state="M"/>
    <connection from=":J3_0" to="rampEnd" fromLane="1" toLane="0" dir="s" state="M"/>
    <connection from=":J4_0" to="switchACC" fromLane="0" toLane="0" dir="s" state="M"/>
    <connection from=":J4_0" to="switchACC" fromLane="1" toLane="1" dir="s" state="M"/>
    <connection from=":J5_0" to="merge2" fromLane="0" toLane="1" dir="s" state="M"/>
    <connection from=":J5_0" to="merge2" fromLane="1" toLane="2" dir="s" state="M"/>
    <connection from=":J5_2" to="merge2" fromLane="0" toLane="0" dir="r" state="M"/>
    <connection from=":J6_0" to="rampStart" fromLane="0" toLane="0" dir="s" state="M"/>
    <connection from=":J6_0" to="rampStart" fromLane="1" toLane="1" dir="s" state="M"/>
    <connection from=":J7_0" to="entry" fromLane="0" toLane="0" dir="s" state="M"/>
    <connection from=":J7_0" to="entry" fromLane="1" toLane="1" dir="s" state="M"/>
    <connection from=":J8_0" to="endSeg" fromLane="0" toLane="0" dir="s" state="M"/>
    <connection from=":J8_0" to="endSeg" fromLane="1" toLane="1" dir="s" state="M"/>
    <connection from=":J9_0" to="ramp2End" fromLane="0" toLane="0" dir="s" state="M"/>
    <connection from=":J9_0" to="ramp2End" fromLane="1" toLane="0" dir="s" state="M"/>

</net>
