<?xml version="1.0" encoding="UTF-8"?>

<!-- generated on 2025-03-03 13:57:23 by Eclipse SUMO netedit Version 1.18.0
-->

<routes xmlns:xsi="http://www.w3.org/2001/XMLSchema-instance" xsi:noNamespaceSchemaLocation="http://sumo.dlr.de/xsd/routes_file.xsd">
    <!-- VTypes -->
    <vType id="ACC_AMax_M" length="5.00" minGap="6.30" maxSpeed="44.10" speedFactor="normc(1.00,0.10,0.20,2.00)" color="blue" lcAssertive="5" carFollowModel="IDM" accel="0.6" decel="5.2" tau="2.2" delta="15.5"/>
    <vType id="ACC_AMax_R" length="5.00" minGap="6.30" maxSpeed="44.10" speedFactor="normc(1.00,0.10,0.20,2.00)" color="white" lcAssertive="1" carFollowModel="IDM" accel="0.6" decel="5.2" tau="2.2" delta="15.5"/>
    <vType id="AV_M" length="5.00" minGap="2.50" maxSpeed="44.10" speedFactor="normc(1.00,0.10,0.20,2.00)" color="red" lcAssertive="5" carFollowModel="IDM" accel="1.70" decel="2" tau="0.5" delta="4"/>
    <vType id="AV_R" length="5.00" minGap="2.50" maxSpeed="44.10" speedFactor="normc(1.00,0.10,0.20,2.00)" color="red" lcAssertive="5" carFollowModel="IDM" accel="1.70" decel="2" tau="0.5" delta="4"/>
    <vType id="HV_M" length="5.00" minGap="3.40" maxSpeed="44.10" speedFactor="normc(1.00,0.10,0.20,2.00)" color="yellow" lcAssertive="5" carFollowModel="IDM" accel="1.06" decel="1.11" tau="1.26" delta="4"/>
    <vType id="HV_R" length="5.00" minGap="3.40" maxSpeed="44.10" speedFactor="normc(1.00,0.10,0.20,2.00)" color="yellow" lcAssertive="5" carFollowModel="IDM" accel="1.06" decel="1.11" tau="1.26" delta="4"/>
    <vType id="HV_R_ACC" length="5.00" minGap="3.40" maxSpeed="44.10" speedFactor="normc(1.00,0.10,0.20,2.00)" color="green" lcAssertive="5" carFollowModel="IDM" accel="1.06" decel="1.11" tau="1.26" delta="4"/>
    <!-- Vehicles, persons and containers (sorted by depart) -->
    <flow id="ACC_M1" type="ACC_AMax_M" begin="0.00" departLane="free" departSpeed="avg" from="entry" to="exit" end="600.00" vehsPerHour="1636.36"/>
    <flow id="ACC_R1_1" type="HV_R_ACC" begin="0.00" departLane="free" departSpeed="avg" from="rampStart" to="exit" end="600.00" vehsPerHour="245.00"/>
    <flow id="ACC_R2_1" type="HV_R_ACC" begin="0.00" departLane="free" departSpeed="avg" from="ramp2Start" to="exit" end="600.00" vehsPerHour="245.00"/>

    <flow id="AV_M1" type="AV_M" begin="0.00" departLane="free" departSpeed="avg" from="entry" to="exit" end="600.00" vehsPerHour="273.00"/>
    <flow id="AV_R1_1" type="AV_R" begin="0.00" departLane="free" departSpeed="avg" from="rampStart" to="exit" end="600.00" vehsPerHour="41.00"/>
    <flow id="AV_R2_1" type="AV_R" begin="0.00" departLane="free" departSpeed="avg" from="ramp2Start" to="exit" end="600.00" vehsPerHour="41.00"/>

    <flow id="HV_M1" type="HV_M" begin="0.00" departLane="free" departSpeed="avg" from="entry" to="exit" end="600.00" vehsPerHour="818.00"/>
    <flow id="HV_R1_1" type="HV_R" begin="0.00" departLane="free" departSpeed="avg" from="rampStart" to="exit" end="600.00" vehsPerHour="122.00"/>
    <flow id="HV_R2_1" type="HV_R" begin="0.00" departLane="free" departSpeed="avg" from="ramp2Start" to="exit" end="600.00" vehsPerHour="122.00"/>

    <flow id="ACC_M2" type="ACC_AMax_M" begin="600.00" departLane="free" departSpeed="avg" from="entry" to="exit" end="1200.00" vehsPerHour="1839.55"/>
    <flow id="ACC_R1_2" type="HV_R_ACC" begin="600.00" departLane="free" departSpeed="avg" from="rampStart" to="exit" end="1200.00" vehsPerHour="205.00"/>
    <flow id="ACC_R2_2" type="HV_R_ACC" begin="600.00" departLane="free" departSpeed="avg" from="ramp2Start" to="exit" end="1200.00" vehsPerHour="205.00"/>

    <flow id="AV_M2" type="AV_M" begin="600.00" departLane="free" departSpeed="avg" from="entry" to="exit" end="1200.00" vehsPerHour="307.01"/>
    <flow id="AV_R1_2" type="AV_R" begin="600.00" departLane="free" departSpeed="avg" from="rampStart" to="exit" end="1200.00" vehsPerHour="34.00"/>
    <flow id="AV_R2_2" type="AV_R" begin="600.00" departLane="free" departSpeed="avg" from="ramp2Start" to="exit" end="1200.00" vehsPerHour="34.00"/>

    <flow id="HV_M2" type="HV_M" begin="600.00" departLane="free" departSpeed="avg" from="entry" to="exit" end="1200.00" vehsPerHour="920.01"/>
    <flow id="HV_R1_2" type="HV_R" begin="600.00" departLane="free" departSpeed="avg" from="rampStart" to="exit" end="1200.00" vehsPerHour="103.00"/>
    <flow id="HV_R2_2" type="HV_R" begin="600.00" departLane="free" departSpeed="avg" from="ramp2Start" to="exit" end="1200.00" vehsPerHour="103.00"/>

    <flow id="ACC_M3" type="ACC_AMax_M" begin="1200.00" departLane="free" departSpeed="avg" from="entry" to="exit" end="1800.00" vehsPerHour="1782.18"/>
    <flow id="ACC_R1_3" type="HV_R_ACC" begin="1200.00" departLane="free" departSpeed="avg" from="rampStart" to="exit" end="1800.00" vehsPerHour="245.00"/>
    <flow id="ACC_R2_3" type="HV_R_ACC" begin="1200.00" departLane="free" departSpeed="avg" from="ramp2Start" to="exit" end="1800.00" vehsPerHour="245.00"/>

    <flow id="AV_M3" type="AV_M" begin="1200.00" departLane="free" departSpeed="avg" from="entry" to="exit" end="1800.00" vehsPerHour="297.01"/>
    <flow id="AV_R1_3" type="AV_R" begin="1200.00" departLane="free" departSpeed="avg" from="rampStart" to="exit" end="1800.00" vehsPerHour="41.00"/>
    <flow id="AV_R2_3" type="AV_R" begin="1200.00" departLane="free" departSpeed="avg" from="ramp2Start" to="exit" end="1800.00" vehsPerHour="41.00"/>

    <flow id="HV_M3" type="HV_M" begin="1200.00" departLane="free" departSpeed="avg" from="entry" to="exit" end="1800.00" vehsPerHour="891.09"/>
    <flow id="HV_R1_3" type="HV_R" begin="1200.00" departLane="free" departSpeed="avg" from="rampStart" to="exit" end="1800.00" vehsPerHour="122.00"/>
    <flow id="HV_R2_3" type="HV_R" begin="1200.00" departLane="free" departSpeed="avg" from="ramp2Start" to="exit" end="1800.00" vehsPerHour="122.00"/>

    <flow id="ACC_M4" type="ACC_AMax_M" begin="1800.00" departLane="free" departSpeed="avg" from="entry" to="exit" end="2400.00" vehsPerHour="1796.41"/>
    <flow id="ACC_R1_4" type="HV_R_ACC" begin="1800.00" departLane="free" departSpeed="avg" from="rampStart" to="exit" end="2400.00" vehsPerHour="194.00"/>
    <flow id="ACC_R2_4" type="HV_R_ACC" begin="1800.00" departLane="free" departSpeed="avg" from="ramp2Start" to="exit" end="2400.00" vehsPerHour="194.00"/>

    <flow id="AV_M4" type="AV_M" begin="1800.00" departLane="free" departSpeed="avg" from="entry" to="exit" end="2400.00" vehsPerHour="299.00"/>
    <flow id="AV_R1_4" type="AV_R" begin="1800.00" departLane="free" departSpeed="avg" from="rampStart" to="exit" end="2400.00" vehsPerHour="32.00"/>
    <flow id="AV_R2_4" type="AV_R" begin="1800.00" departLane="free" departSpeed="avg" from="ramp2Start" to="exit" end="2400.00" vehsPerHour="32.00"/>

    <flow id="HV_M4" type="HV_M" begin="1800.00" departLane="free" departSpeed="avg" from="entry" to="exit" end="2400.00" vehsPerHour="897.98"/>
    <flow id="HV_R1_4" type="HV_R" begin="1800.00" departLane="free" departSpeed="avg" from="rampStart" to="exit" end="2400.00" vehsPerHour="97.00"/>
    <flow id="HV_R2_4" type="HV_R" begin="1800.00" departLane="free" departSpeed="avg" from="ramp2Start" to="exit" end="2400.00" vehsPerHour="97.00"/>

    <flow id="ACC_M5" type="ACC_AMax_M" begin="2400.00" departLane="free" departSpeed="avg" from="entry" to="exit" end="3000.00" vehsPerHour="1736.61"/>
    <flow id="ACC_R1_5" type="HV_R_ACC" begin="2400.00" departLane="free" departSpeed="avg" from="rampStart" to="exit" end="3000.00" vehsPerHour="194.00"/>
    <flow id="ACC_R2_5" type="HV_R_ACC" begin="2400.00" departLane="free" departSpeed="avg" from="ramp2Start" to="exit" end="3000.00" vehsPerHour="194.00"/>

    <flow id="AV_M5" type="AV_M" begin="2400.00" departLane="free" departSpeed="avg" from="entry" to="exit" end="3000.00" vehsPerHour="290.00"/>
    <flow id="AV_R1_5" type="AV_R" begin="2400.00" departLane="free" departSpeed="avg" from="rampStart" to="exit" end="3000.00" vehsPerHour="32.00"/>
    <flow id="AV_R2_5" type="AV_R" begin="2400.00" departLane="free" departSpeed="avg" from="ramp2Start" to="exit" end="3000.00" vehsPerHour="32.00"/>

    <flow id="HV_M5" type="HV_M" begin="2400.00" departLane="free" departSpeed="avg" from="entry" to="exit" end="3000.00" vehsPerHour="868.94"/>
    <flow id="HV_R1_5" type="HV_R" begin="2400.00" departLane="free" departSpeed="avg" from="rampStart" to="exit" end="3000.00" vehsPerHour="97.00"/>
    <flow id="HV_R2_5" type="HV_R" begin="2400.00" departLane="free" departSpeed="avg" from="ramp2Start" to="exit" end="3000.00" vehsPerHour="97.00"/>

    <flow id="ACC_M6" type="ACC_AMax_M" begin="3000.00" departLane="free" departSpeed="avg" from="entry" to="exit" end="3600.00" vehsPerHour="1710.21"/>
    <flow id="ACC_R1_6" type="HV_R_ACC" begin="3000.00" departLane="free" departSpeed="avg" from="rampStart" to="exit" end="3600.00" vehsPerHour="223.01"/>
    <flow id="ACC_R2_6" type="HV_R_ACC" begin="3000.00" departLane="free" departSpeed="avg" from="ramp2Start" to="exit" end="3600.00" vehsPerHour="223.01"/>

    <flow id="AV_M6" type="AV_M" begin="3000.00" departLane="free" departSpeed="avg" from="entry" to="exit" end="3600.00" vehsPerHour="284.99"/>
    <flow id="AV_R1_6" type="AV_R" begin="3000.00" departLane="free" departSpeed="avg" from="rampStart" to="exit" end="3600.00" vehsPerHour="37.00"/>
    <flow id="AV_R2_6" type="AV_R" begin="3000.00" departLane="free" departSpeed="avg" from="ramp2Start" to="exit" end="3600.00" vehsPerHour="37.00"/>

    <flow id="HV_M6" type="HV_M" begin="3000.00" departLane="free" departSpeed="avg" from="entry" to="exit" end="3600.00" vehsPerHour="854.90"/>
    <flow id="HV_R1_6" type="HV_R" begin="3000.00" departLane="free" departSpeed="avg" from="rampStart" to="exit" end="3600.00" vehsPerHour="112.00"/>
    <flow id="HV_R2_6" type="HV_R" begin="3000.00" departLane="free" departSpeed="avg" from="ramp2Start" to="exit" end="3600.00" vehsPerHour="112.00"/>

</routes>
