<?xml version="1.0" encoding="UTF-8"?>

<!-- generated on 2025-12-19T14:11:12.917910-06:00 by Eclipse SUMO sumo 1.25.0
<sumoConfiguration xmlns:xsi="http://www.w3.org/2001/XMLSchema-instance" xsi:noNamespaceSchemaLocation="http://sumo.dlr.de/xsd/sumoConfiguration.xsd">

    <input>
        <net-file value="610/610.net.xml"/>
        <route-files value="610/demand.rou.xml"/>
        <additional-files value="610/detectors.xml"/>
    </input>

    <output>
        <output-prefix value="highACC_NAaaa_"/>
        <statistic-output value="tripinfo.xml"/>
    </output>

    <time>
        <step-length value=".05"/>
    </time>

    <report>
        <duration-log.statistics value="true"/>
    </report>

    <traci_server>
        <remote-port value="51698"/>
    </traci_server>

</sumoConfiguration>
