<?xml version="1.0" encoding="UTF-8"?>

<!-- generated on 2025-06-27 16:08:21 by Eclipse SUMO GUI Version 1.21.0
<sumoConfiguration xmlns:xsi="http://www.w3.org/2001/XMLSchema-instance" xsi:noNamespaceSchemaLocation="http://sumo.dlr.de/xsd/sumoConfiguration.xsd">

    <input>
        <net-file value="site_trial.net.xml"/>
        <route-files value="MD_fullHV.rou.xml"/>
        <additional-files value="detectors.xml"/>
    </input>

    <output>
        <output-prefix value="highACC_NAaaa_"/>
        <statistic-output value="tripinfo.xml"/>
    </output>

    <time>
        <step-length value=".05"/>
    </time>

    <report>
        <duration-log.statistics value="true"/>
    </report>

    <traci_server>
        <remote-port value="49334"/>
    </traci_server>

</sumoConfiguration>
-->

<statistics xmlns:xsi="http://www.w3.org/2001/XMLSchema-instance" xsi:noNamespaceSchemaLocation="http://sumo.dlr.de/xsd/statistic_file.xsd">
    <performance clockBegin="1751058501.88" clockEnd="1751063726.67" clockDuration="5224.80" traciDuration="4222.73" realTimeFactor="0.84" vehicleUpdatesPerSecond="8174.56" personUpdatesPerSecond="0.00" begin="0.00" end="4380.00" duration="4380.00"/>
    <vehicles loaded="3750" inserted="3750" running="0" waiting="0"/>
    <teleports total="0" jam="0" yield="0" wrongLane="0"/>
    <safety collisions="0" emergencyStops="9" emergencyBraking="601"/>
    <persons loaded="0" running="0" jammed="0"/>
    <personTeleports total="0" abortWait="0" wrongDest="0"/>
    <vehicleTripStatistics count="3750" routeLength="7419.95" speed="14.02" duration="569.47" waitingTime="72.35" timeLoss="285.79" departDelay="0.03" departDelayWaiting="-1.00" totalTravelTime="2135519.60" totalDepartDelay="94.17"/>
    <pedestrianStatistics number="0" routeLength="0.00" duration="0.00" timeLoss="0.00"/>
    <rideStatistics number="0"/>
    <transportStatistics number="0"/>
</statistics>
