<?xml version="1.0" encoding="UTF-8"?>

<!-- generated on 2025-12-26T17:31:27.781151-06:00 by Eclipse SUMO netedit 1.25.0
<neteditConfiguration xmlns:xsi="http://www.w3.org/2001/XMLSchema-instance" xsi:noNamespaceSchemaLocation="http://sumo.dlr.de/xsd/neteditConfiguration.xsd">

    <input>
        <sumo-net-file value="C:\Users\micha\Downloads\610\610WB.net.xml"/>
    </input>

    <output>
        <output-file value="C:\Users\micha\Downloads\610\610WB.net.xml"/>
    </output>

    <processing>
        <geometry.min-radius.fix.railways value="false"/>
        <geometry.avoid-overlap value="false"/>
        <geometry.max-grade.fix value="false"/>
        <offset.disable-normalization value="true"/>
        <lefthand value="0"/>
    </processing>

    <junctions>
        <no-turnarounds value="true"/>
        <junctions.corner-detail value="5"/>
        <junctions.limit-turn-speed value="5.50"/>
        <rectangular-lane-cut value="0"/>
    </junctions>

    <pedestrian>
        <walkingareas value="0"/>
    </pedestrian>

</neteditConfiguration>
-->

<net version="1.20" junctionCornerDetail="5" limitTurnSpeed="5.50" avoidOverlap="0" xmlns:xsi="http://www.w3.org/2001/XMLSchema-instance" xsi:noNamespaceSchemaLocation="http://sumo.dlr.de/xsd/net_file.xsd">

    <location netOffset="0.00,0.00" convBoundary="-82.66,-75.81,2022.20,96.13" origBoundary="-10000000000.00,-10000000000.00,10000000000.00,10000000000.00" projParameter="!"/>

    <edge id=":J0_0" function="internal">
        <lane id=":J0_0_0" index="0" speed="26.80" length="0.30" shape="-57.51,-3.31 -57.81,-3.31"/>
    </edge>
    <edge id=":J1_0" function="internal">
        <lane id=":J1_0_0" index="0" speed="26.80" length="8.20" shape="-5.06,-5.23 -7.46,-5.02 -9.06,-4.48 -10.66,-3.93 -13.06,-3.66"/>
    </edge>
    <edge id=":J100_0" function="internal">
        <lane id=":J100_0_0" index="0" speed="23.45" length="2.28" shape="1586.95,24.14 1586.87,23.40 1586.91,22.88 1586.99,22.36 1587.03,21.60"/>
        <lane id=":J100_0_1" index="1" speed="23.45" length="2.28" shape="1590.10,23.56 1590.04,22.97 1590.10,22.57 1590.18,22.16 1590.23,21.57"/>
    </edge>
    <edge id=":J102_0" function="internal">
        <lane id=":J102_0_0" index="0" speed="7.96" length="7.25" shape="1681.43,10.55 1680.35,8.55 1679.17,7.04 1677.91,6.03 1676.57,5.50"/>
    </edge>
    <edge id=":J102_1" function="internal">
        <lane id=":J102_1_0" index="0" speed="26.80" length="7.61" shape="1684.26,6.74 1676.57,5.50"/>
        <lane id=":J102_1_1" index="1" speed="26.80" length="7.61" shape="1684.71,3.57 1677.19,2.36"/>
        <lane id=":J102_1_2" index="2" speed="26.80" length="7.61" shape="1685.15,0.40 1677.82,-0.77"/>
    </edge>
    <edge id=":J104_0" function="internal">
        <lane id=":J104_0_0" index="0" speed="23.45" length="0.16" shape="1684.70,25.17 1684.67,25.10"/>
        <lane id=":J104_0_1" index="1" speed="23.45" length="0.16" shape="1687.67,23.97 1687.57,23.75"/>
    </edge>
    <edge id=":J106_0" function="internal">
        <lane id=":J106_0_0" index="0" speed="6.55" length="3.96" shape="1706.53,14.57 1706.03,13.86 1705.33,13.26 1704.43,12.78 1703.34,12.41"/>
        <lane id=":J106_0_1" index="1" speed="7.82" length="5.83" shape="1706.53,14.57 1706.10,13.41 1705.53,11.71 1704.87,10.12 1704.15,9.31"/>
        <lane id=":J106_0_2" index="2" speed="10.04" length="9.91" shape="1706.53,14.57 1704.60,10.59 1703.70,7.87 1703.82,6.41 1704.97,6.22"/>
    </edge>
    <edge id=":J106_3" function="internal">
        <lane id=":J106_3_0" index="0" speed="26.80" length="12.42" shape="1716.62,12.29 1712.86,11.71 1710.33,11.10 1707.82,10.35 1704.15,9.31"/>
        <lane id=":J106_3_1" index="1" speed="26.80" length="12.42" shape="1717.03,9.11 1713.39,8.55 1710.94,7.96 1708.52,7.22 1704.97,6.22"/>
        <lane id=":J106_3_2" index="2" speed="26.80" length="12.42" shape="1717.43,5.94 1713.92,5.39 1711.55,4.82 1709.21,4.10 1705.78,3.12"/>
    </edge>
    <edge id=":J107_0" function="internal">
        <lane id=":J107_0_0" index="0" speed="23.45" length="3.20" shape="1706.63,24.97 1709.64,23.85"/>
        <lane id=":J107_0_1" index="1" speed="23.45" length="3.20" shape="1709.58,23.72 1712.46,22.35"/>
    </edge>
    <edge id=":J108_0" function="internal">
        <lane id=":J108_0_0" index="0" speed="26.80" length="7.63" shape="1696.17,7.22 1694.08,6.93 1692.60,7.15 1691.11,7.45 1688.97,7.40"/>
        <lane id=":J108_0_1" index="1" speed="26.80" length="7.63" shape="1696.98,4.12 1694.79,3.81 1693.23,4.01 1691.67,4.30 1689.42,4.23"/>
        <lane id=":J108_0_2" index="2" speed="26.80" length="7.63" shape="1697.80,1.03 1695.49,0.68 1693.87,0.87 1692.22,1.15 1689.86,1.06"/>
    </edge>
    <edge id=":J118_0" function="internal">
        <lane id=":J118_0_0" index="0" speed="26.80" length="7.75" shape="1780.45,19.25 1778.30,19.00 1776.79,19.25 1775.27,19.56 1773.09,19.53"/>
        <lane id=":J118_0_1" index="1" speed="26.80" length="7.75" shape="1781.18,16.13 1778.94,15.86 1777.37,16.09 1775.78,16.40 1773.50,16.36"/>
        <lane id=":J118_0_2" index="2" speed="26.80" length="7.75" shape="1781.92,13.02 1779.58,12.73 1777.94,12.94 1776.28,13.24 1773.90,13.18"/>
    </edge>
    <edge id=":J119_0" function="internal">
        <lane id=":J119_0_0" index="0" speed="7.09" length="4.69" shape="1792.04,27.18 1791.35,26.19 1790.52,25.39 1789.54,24.81 1788.42,24.42"/>
        <lane id=":J119_0_1" index="1" speed="8.31" length="6.60" shape="1792.04,27.18 1791.52,25.93 1790.78,24.01 1789.95,22.20 1789.16,21.31"/>
        <lane id=":J119_0_2" index="2" speed="10.42" length="10.64" shape="1792.04,27.18 1789.83,22.95 1788.74,20.04 1788.76,18.45 1789.90,18.19"/>
    </edge>
    <edge id=":J119_3" function="internal">
        <lane id=":J119_3_0" index="0" speed="26.80" length="5.60" shape="1794.54,23.54 1792.88,23.11 1791.83,22.52 1790.79,21.88 1789.16,21.31"/>
        <lane id=":J119_3_1" index="1" speed="26.80" length="5.60" shape="1795.00,20.38 1793.43,19.96 1792.43,19.38 1791.45,18.75 1789.90,18.19"/>
        <lane id=":J119_3_2" index="2" speed="26.80" length="5.60" shape="1795.47,17.21 1793.97,16.80 1793.03,16.23 1792.11,15.62 1790.63,15.08"/>
    </edge>
    <edge id=":J120_0" function="internal">
        <lane id=":J120_0_0" index="0" speed="23.45" length="3.21" shape="1799.70,50.45 1802.36,48.66"/>
        <lane id=":J120_0_1" index="1" speed="23.45" length="3.21" shape="1802.50,48.91 1805.15,47.08"/>
    </edge>
    <edge id=":J121_0" function="internal">
        <lane id=":J121_0_0" index="0" speed="6.69" length="6.32" shape="1844.70,34.12 1844.02,32.61 1843.04,31.46 1841.75,30.67 1840.16,30.24"/>
    </edge>
    <edge id=":J121_1" function="internal">
        <lane id=":J121_1_0" index="0" speed="26.80" length="15.37" shape="1856.09,28.90 1851.47,28.79 1848.33,28.42 1845.20,27.84 1840.62,27.07"/>
        <lane id=":J121_1_1" index="1" speed="26.80" length="15.37" shape="1856.08,25.70 1851.60,25.59 1848.55,25.23 1845.52,24.65 1841.09,23.90"/>
    </edge>
    <edge id=":J122_0" function="internal">
        <lane id=":J122_0_0" index="0" speed="23.45" length="3.21" shape="1847.29,58.71 1850.28,57.53"/>
        <lane id=":J122_0_1" index="1" speed="23.45" length="3.21" shape="1850.37,57.81 1853.34,56.59"/>
    </edge>
    <edge id=":J123_0" function="internal">
        <lane id=":J123_0_0" index="0" speed="8.82" length="8.14" shape="1938.22,28.62 1936.61,28.84 1934.94,29.58 1933.20,30.85 1931.40,32.65"/>
    </edge>
    <edge id=":J123_1" function="internal">
        <lane id=":J123_1_0" index="0" speed="20.34" length="8.69" shape="1938.22,28.62 1929.58,28.60"/>
        <lane id=":J123_1_1" index="1" speed="20.34" length="8.69" shape="1938.30,25.42 1929.56,25.40"/>
    </edge>
    <edge id=":J124_0" function="internal">
        <lane id=":J124_0_0" index="0" speed="20.34" length="1.63" shape="1918.40,47.27 1919.40,48.55"/>
    </edge>
    <edge id=":J125_0" function="internal">
        <lane id=":J125_0_0" index="0" speed="20.34" length="0.23" shape="1984.77,29.88 1984.42,29.89"/>
        <lane id=":J125_0_1" index="1" speed="20.34" length="0.23" shape="1984.62,26.69 1984.51,26.69"/>
    </edge>
    <edge id=":J128_0" function="internal">
        <lane id=":J128_0_0" index="0" speed="20.10" length="0.16" shape="1713.13,40.33 1713.03,40.12"/>
        <lane id=":J128_0_1" index="1" speed="20.10" length="0.16" shape="1716.01,38.94 1715.98,38.87"/>
    </edge>
    <edge id=":J129_0" function="internal">
        <lane id=":J129_0_0" index="0" speed="20.10" length="0.29" shape="1689.25,36.41 1689.24,36.37 1689.23,36.34 1689.22,36.31 1689.20,36.27"/>
        <lane id=":J129_0_1" index="1" speed="20.10" length="0.29" shape="1692.31,35.48 1692.28,35.36 1692.25,35.27 1692.22,35.19 1692.17,35.07"/>
    </edge>
    <edge id=":J130_0" function="internal">
        <lane id=":J130_0_0" index="0" speed="20.10" length="0.85" shape="1586.85,23.58 1586.99,24.34"/>
        <lane id=":J130_0_1" index="1" speed="20.10" length="0.85" shape="1589.96,22.83 1590.13,23.76"/>
    </edge>
    <edge id=":J132_0" function="internal">
        <lane id=":J132_0_0" index="0" speed="20.10" length="0.24" shape="1415.42,-42.44 1415.31,-42.58"/>
        <lane id=":J132_0_1" index="1" speed="20.10" length="0.24" shape="1417.93,-44.42 1417.75,-44.65"/>
    </edge>
    <edge id=":J135_0" function="internal">
        <lane id=":J135_0_0" index="0" speed="20.10" length="0.58" shape="1305.00,-19.98 1304.93,-20.02 1304.87,-20.05 1304.82,-20.07 1304.74,-20.09"/>
        <lane id=":J135_0_1" index="1" speed="20.10" length="0.58" shape="1306.51,-22.81 1306.28,-22.93 1306.12,-23.00 1305.96,-23.06 1305.71,-23.14"/>
    </edge>
    <edge id=":J137_0" function="internal">
        <lane id=":J137_0_0" index="0" speed="20.10" length="0.60" shape="1169.58,17.84 1169.51,17.79 1169.46,17.75 1169.41,17.72 1169.33,17.68"/>
        <lane id=":J137_0_1" index="1" speed="20.10" length="0.60" shape="1171.54,15.31 1171.33,15.15 1171.18,15.04 1171.02,14.95 1170.79,14.83"/>
    </edge>
    <edge id=":J139_0" function="internal">
        <lane id=":J139_0_0" index="0" speed="20.10" length="0.29" shape="1028.01,27.35 1027.81,27.11"/>
        <lane id=":J139_0_1" index="1" speed="20.10" length="0.29" shape="1030.48,25.32 1030.32,25.12"/>
    </edge>
    <edge id=":J141_0" function="internal">
        <lane id=":J141_0_0" index="0" speed="20.10" length="0.10" shape="884.73,33.28 884.79,33.34"/>
        <lane id=":J141_0_1" index="1" speed="20.10" length="0.10" shape="887.09,31.12 887.12,31.15"/>
    </edge>
    <edge id=":J143_0" function="internal">
        <lane id=":J143_0_0" index="0" speed="10.65" length="1.11" shape="799.51,30.55 799.18,30.18 798.98,29.91 798.81,29.61 798.61,29.16"/>
        <lane id=":J143_0_1" index="1" speed="20.10" length="1.11" shape="801.86,28.37 801.75,28.25 801.68,28.16 801.62,28.06 801.56,27.91"/>
    </edge>
    <edge id=":J145_0" function="internal">
        <lane id=":J145_0_0" index="0" speed="20.10" length="0.30" shape="592.64,27.19 592.39,27.00"/>
        <lane id=":J145_0_1" index="1" speed="20.10" length="0.30" shape="594.61,24.68 594.38,24.50"/>
    </edge>
    <edge id=":J148_0" function="internal">
        <lane id=":J148_0_0" index="0" speed="20.10" length="0.36" shape="249.01,24.51 248.88,24.41 248.79,24.34 248.71,24.26 248.59,24.15"/>
        <lane id=":J148_0_1" index="1" speed="20.10" length="0.36" shape="250.96,21.97 250.91,21.94 250.88,21.91 250.86,21.89 250.82,21.85"/>
    </edge>
    <edge id=":J149_0" function="internal">
        <lane id=":J149_0_0" index="0" speed="20.10" length="0.31" shape="38.28,24.91 38.25,24.88 38.23,24.85 38.21,24.83 38.18,24.80"/>
        <lane id=":J149_0_1" index="1" speed="20.10" length="0.31" shape="40.73,22.85 40.64,22.74 40.57,22.67 40.51,22.61 40.41,22.51"/>
    </edge>
    <edge id=":J15_0" function="internal">
        <lane id=":J15_0_0" index="0" speed="8.88" length="3.99" shape="225.23,0.62 224.22,0.00 223.48,-0.34 222.67,-0.49 221.50,-0.52"/>
    </edge>
    <edge id=":J15_1" function="internal">
        <lane id=":J15_1_0" index="0" speed="26.80" length="8.85" shape="230.37,-0.56 221.50,-0.52"/>
        <lane id=":J15_1_1" index="1" speed="26.80" length="8.85" shape="230.36,-3.76 221.53,-3.72"/>
    </edge>
    <edge id=":J17_0" function="internal">
        <lane id=":J17_0_0" index="0" speed="23.45" length="2.68" shape="229.70,5.88 229.21,5.37 228.89,5.01 228.55,4.67 227.98,4.27"/>
        <lane id=":J17_0_1" index="1" speed="23.45" length="2.68" shape="231.92,3.58 231.30,2.94 230.88,2.49 230.43,2.08 229.70,1.57"/>
    </edge>
    <edge id=":J18_0" function="internal">
        <lane id=":J18_0_0" index="0" speed="9.66" length="7.77" shape="387.96,-1.12 385.78,-0.87 384.41,-0.14 383.22,1.07 381.59,2.73"/>
    </edge>
    <edge id=":J18_1" function="internal">
        <lane id=":J18_1_0" index="0" speed="26.80" length="7.87" shape="387.96,-1.12 380.09,-1.09"/>
        <lane id=":J18_1_1" index="1" speed="26.80" length="7.87" shape="387.96,-4.32 380.08,-4.29"/>
    </edge>
    <edge id=":J184_0" function="internal">
        <lane id=":J184_0_0" index="0" speed="20.10" length="1.76" shape="1816.77,81.70 1816.62,81.44"/>
        <lane id=":J184_0_1" index="1" speed="20.10" length="1.76" shape="1816.77,81.70 1819.43,79.90"/>
    </edge>
    <edge id=":J197_0" function="internal">
        <lane id=":J197_0_0" index="0" speed="20.34" length="0.10" shape="116.13,13.41 116.13,13.41"/>
    </edge>
    <edge id=":J209_0" function="internal">
        <lane id=":J209_0_0" index="0" speed="26.80" length="8.21" shape="1847.56,48.74 1847.09,46.38 1847.14,44.69 1847.19,42.99 1846.72,40.63"/>
        <lane id=":J209_0_1" index="1" speed="26.80" length="8.21" shape="1850.61,47.80 1849.66,45.58 1848.66,44.21 1847.66,42.85 1846.72,40.63"/>
    </edge>
    <edge id=":J210_0" function="internal">
        <lane id=":J210_0_0" index="0" speed="26.80" length="8.21" shape="1798.67,42.14 1797.71,39.93 1797.39,38.26 1797.08,36.60 1796.12,34.39"/>
        <lane id=":J210_0_1" index="1" speed="26.80" length="8.21" shape="1801.45,40.56 1800.05,38.60 1798.79,37.48 1797.52,36.35 1796.12,34.39"/>
    </edge>
    <edge id=":J211_0" function="internal">
        <lane id=":J211_0_0" index="0" speed="26.80" length="7.51" shape="1708.62,21.93 1707.82,19.88 1707.62,18.34 1707.43,16.80 1706.63,14.75"/>
        <lane id=":J211_0_1" index="1" speed="26.80" length="7.51" shape="1711.45,20.43 1710.20,18.62 1709.04,17.59 1707.87,16.56 1706.63,14.75"/>
    </edge>
    <edge id=":J212_0" function="internal">
        <lane id=":J212_0_0" index="0" speed="26.80" length="8.40" shape="1682.50,20.44 1681.92,18.00 1682.27,16.14 1682.62,14.28 1682.03,11.84"/>
        <lane id=":J212_0_1" index="1" speed="26.80" length="8.40" shape="1685.41,19.09 1682.03,11.84"/>
    </edge>
    <edge id=":J213_0" function="internal">
        <lane id=":J213_0_0" index="0" speed="26.80" length="6.52" shape="1586.85,5.22 1587.08,3.33 1587.62,2.08 1588.16,0.83 1588.39,-1.06"/>
        <lane id=":J213_0_1" index="1" speed="26.80" length="6.52" shape="1590.05,5.18 1589.78,3.30 1589.22,2.06 1588.66,0.83 1588.39,-1.06"/>
    </edge>
    <edge id=":J214_0" function="internal">
        <lane id=":J214_0_0" index="0" speed="26.80" length="7.24" shape="1405.11,-59.27 1403.82,-60.95 1403.24,-62.33 1402.66,-63.72 1401.38,-65.40"/>
        <lane id=":J214_0_1" index="1" speed="26.80" length="7.24" shape="1407.41,-61.50 1405.76,-62.83 1404.39,-63.45 1403.02,-64.07 1401.38,-65.40"/>
    </edge>
    <edge id=":J215_0" function="internal">
        <lane id=":J215_0_0" index="0" speed="26.80" length="8.21" shape="1286.12,-29.49 1283.93,-30.50 1282.59,-31.53 1281.25,-32.57 1279.06,-33.58"/>
        <lane id=":J215_0_1" index="1" speed="26.80" length="8.21" shape="1287.15,-32.52 1284.80,-33.05 1283.11,-33.05 1281.41,-33.04 1279.06,-33.58"/>
    </edge>
    <edge id=":J216_0" function="internal">
        <lane id=":J216_0_0" index="0" speed="26.80" length="8.21" shape="1155.71,7.73 1153.59,6.58 1152.32,5.46 1151.05,4.33 1148.94,3.18"/>
        <lane id=":J216_0_1" index="1" speed="26.80" length="8.21" shape="1156.94,4.78 1154.63,4.09 1152.94,3.98 1151.25,3.87 1148.94,3.18"/>
    </edge>
    <edge id=":J217_0" function="internal">
        <lane id=":J217_0_0" index="0" speed="26.80" length="8.21" shape="1021.38,14.15 1019.99,12.19 1019.34,10.62 1018.69,9.05 1017.29,7.09"/>
        <lane id=":J217_0_1" index="1" speed="26.80" length="8.21" shape="1023.78,12.04 1022.01,10.40 1020.54,9.56 1019.07,8.72 1017.29,7.09"/>
    </edge>
    <edge id=":J218_0" function="internal">
        <lane id=":J218_0_0" index="0" speed="26.80" length="8.21" shape="876.37,18.89 875.39,16.68 875.07,15.02 874.75,13.35 873.77,11.15"/>
        <lane id=":J218_0_1" index="1" speed="26.80" length="8.21" shape="879.14,17.29 877.73,15.34 876.45,14.22 875.18,13.11 873.77,11.15"/>
    </edge>
    <edge id=":J219_0" function="internal">
        <lane id=":J219_0_0" index="0" speed="26.80" length="5.41" shape="787.94,7.81 787.13,6.48 786.90,5.36 786.67,4.24 785.86,2.91"/>
        <lane id=":J219_0_1" index="1" speed="26.80" length="5.41" shape="790.37,5.73 789.18,4.72 788.12,4.32 787.05,3.92 785.86,2.91"/>
    </edge>
    <edge id=":J220_0" function="internal">
        <lane id=":J220_0_0" index="0" speed="26.80" length="8.21" shape="582.62,14.40 581.39,12.32 580.88,10.71 580.36,9.09 579.14,7.02"/>
        <lane id=":J220_0_1" index="1" speed="26.80" length="8.21" shape="585.19,12.49 583.56,10.71 582.16,9.75 580.77,8.79 579.14,7.02"/>
    </edge>
    <edge id=":J221_0" function="internal">
        <lane id=":J221_0_0" index="0" speed="26.80" length="3.68" shape="227.23,3.79 226.52,3.04 226.31,2.26 226.10,1.47 225.39,0.72"/>
        <lane id=":J221_0_1" index="1" speed="26.80" length="3.68" shape="228.94,1.09 227.97,0.76 227.17,0.91 226.37,1.05 225.39,0.72"/>
    </edge>
    <edge id=":J222_0" function="internal">
        <lane id=":J222_0_0" index="0" speed="26.80" length="8.40" shape="21.09,9.61 19.43,7.72 18.87,5.92 18.31,4.11 16.66,2.22"/>
        <lane id=":J222_0_1" index="1" speed="26.80" length="8.40" shape="23.03,7.06 16.66,2.22"/>
    </edge>
    <edge id=":J23_0" function="internal">
        <lane id=":J23_0_0" index="0" speed="20.34" length="1.63" shape="366.51,16.60 367.37,17.99"/>
    </edge>
    <edge id=":J24_0" function="internal">
        <lane id=":J24_0_0" index="0" speed="10.40" length="8.12" shape="488.91,-1.23 486.63,-1.01 485.17,-0.27 483.88,0.93 482.08,2.56"/>
    </edge>
    <edge id=":J24_1" function="internal">
        <lane id=":J24_1_0" index="0" speed="26.80" length="8.20" shape="488.91,-1.23 480.74,-1.22"/>
        <lane id=":J24_1_1" index="1" speed="26.80" length="8.20" shape="488.96,-4.43 480.74,-4.42"/>
    </edge>
    <edge id=":J25_0" function="internal">
        <lane id=":J25_0_0" index="0" speed="20.34" length="2.91" shape="478.32,5.59 477.66,6.15 477.25,6.57 476.86,7.02 476.27,7.65"/>
    </edge>
    <edge id=":J26_0" function="internal">
        <lane id=":J26_0_0" index="0" speed="26.80" length="8.16" shape="566.53,-1.47 564.16,-1.35 562.57,-0.87 560.97,-0.36 558.60,-0.15"/>
        <lane id=":J26_0_1" index="1" speed="26.80" length="8.16" shape="566.71,-4.67 564.30,-4.55 562.68,-4.07 561.05,-3.56 558.64,-3.35"/>
    </edge>
    <edge id=":J28_0" function="internal">
        <lane id=":J28_0_0" index="0" speed="7.09" length="5.14" shape="577.29,4.53 576.38,3.52 575.35,2.77 574.21,2.29 572.96,2.09"/>
    </edge>
    <edge id=":J28_1" function="internal">
        <lane id=":J28_1_0" index="0" speed="20.34" length="6.45" shape="579.32,0.46 577.40,0.75 576.14,1.35 574.88,1.91 572.96,2.09"/>
        <lane id=":J28_1_1" index="1" speed="20.34" length="6.45" shape="579.32,0.46 577.46,0.25 576.23,-0.25 575.00,-0.79 573.14,-1.11"/>
        <lane id=":J28_1_2" index="2" speed="20.34" length="6.45" shape="579.31,-2.74 577.50,-2.95 576.31,-3.45 575.12,-3.98 573.31,-4.30"/>
    </edge>
    <edge id=":J29_0" function="internal">
        <lane id=":J29_0_0" index="0" speed="23.45" length="3.43" shape="591.85,26.57 591.00,25.82 590.51,25.22 590.09,24.54 589.45,23.60"/>
        <lane id=":J29_0_1" index="1" speed="23.45" length="3.43" shape="593.84,24.06 593.19,23.47 592.82,22.98 592.51,22.44 592.02,21.69"/>
    </edge>
    <edge id=":J32_0" function="internal">
        <lane id=":J32_0_0" index="0" speed="7.79" length="5.44" shape="666.80,1.67 665.62,1.80 664.43,2.24 663.24,2.98 662.04,4.02"/>
    </edge>
    <edge id=":J32_1" function="internal">
        <lane id=":J32_1_0" index="0" speed="20.34" length="6.73" shape="666.84,-1.53 664.91,-1.30 663.63,-0.73 662.36,-0.16 660.42,0.11"/>
        <lane id=":J32_1_1" index="1" speed="20.34" length="6.73" shape="666.89,-4.73 664.94,-4.50 663.65,-3.93 662.36,-3.36 660.41,-3.09"/>
    </edge>
    <edge id=":J33_0" function="internal">
        <lane id=":J33_0_0" index="0" speed="26.80" length="8.21" shape="685.08,0.28 682.68,0.52 681.07,1.06 679.45,1.60 677.05,1.81"/>
        <lane id=":J33_0_1" index="1" speed="26.80" length="8.21" shape="685.08,0.28 682.69,0.02 681.09,-0.54 679.49,-1.10 677.09,-1.39"/>
        <lane id=":J33_0_2" index="2" speed="26.80" length="8.21" shape="685.09,-2.92 682.71,-3.18 681.12,-3.74 679.52,-4.30 677.14,-4.59"/>
    </edge>
    <edge id=":J37_0" function="internal">
        <lane id=":J37_0_0" index="0" speed="20.34" length="1.60" shape="655.69,10.30 656.69,11.56"/>
    </edge>
    <edge id=":J38_0" function="internal">
        <lane id=":J38_0_0" index="0" speed="26.80" length="8.10" shape="777.52,-0.82 775.18,-0.70 773.61,-0.22 772.03,0.30 769.69,0.54"/>
        <lane id=":J38_0_1" index="1" speed="26.80" length="8.10" shape="777.71,-4.01 775.32,-3.90 773.71,-3.42 772.09,-2.90 769.70,-2.66"/>
    </edge>
    <edge id=":J41_0" function="internal">
        <lane id=":J41_0_0" index="0" speed="5.35" length="2.39" shape="785.73,2.75 785.24,2.44 784.73,2.49 784.15,2.67 783.46,2.75"/>
    </edge>
    <edge id=":J41_1" function="internal">
        <lane id=":J41_1_0" index="0" speed="26.80" length="5.88" shape="789.41,1.02 787.68,0.83 786.53,0.37 785.39,-0.14 783.65,-0.45"/>
        <lane id=":J41_1_1" index="1" speed="26.80" length="5.88" shape="789.37,-2.18 787.70,-2.37 786.60,-2.83 785.51,-3.34 783.85,-3.64"/>
    </edge>
    <edge id=":J42_0" function="internal">
        <lane id=":J42_0_0" index="0" speed="16.53" length="2.51" shape="791.78,13.13 791.57,12.56 791.45,12.16 791.28,11.78 790.92,11.31"/>
        <lane id=":J42_0_1" index="1" speed="20.04" length="2.51" shape="794.72,11.87 794.40,11.04 794.18,10.46 793.89,9.93 793.36,9.23"/>
    </edge>
    <edge id=":J43_0" function="internal">
        <lane id=":J43_0_0" index="0" speed="26.80" length="8.21" shape="800.04,-0.70 797.65,-0.44 796.05,0.12 794.46,0.69 792.07,0.98"/>
        <lane id=":J43_0_1" index="1" speed="26.80" length="8.21" shape="800.02,-3.90 797.62,-3.64 796.02,-3.08 794.42,-2.51 792.02,-2.22"/>
    </edge>
    <edge id=":J51_0" function="internal">
        <lane id=":J51_0_0" index="0" speed="9.92" length="9.67" shape="836.89,2.35 834.62,2.57 832.44,3.30 830.36,4.56 828.38,6.33"/>
    </edge>
    <edge id=":J51_1" function="internal">
        <lane id=":J51_1_0" index="0" speed="26.80" length="10.30" shape="836.89,2.35 826.67,2.36"/>
        <lane id=":J51_1_1" index="1" speed="26.80" length="10.30" shape="836.95,-0.85 826.65,-0.84"/>
        <lane id=":J51_1_2" index="2" speed="26.80" length="10.30" shape="837.01,-4.05 826.64,-4.04"/>
    </edge>
    <edge id=":J52_0" function="internal">
        <lane id=":J52_0_0" index="0" speed="8.09" length="8.56" shape="871.67,7.49 870.26,5.49 868.67,4.05 866.90,3.17 864.94,2.85"/>
    </edge>
    <edge id=":J52_1" function="internal">
        <lane id=":J52_1_0" index="0" speed="26.80" length="9.44" shape="874.27,3.24 864.94,2.85"/>
        <lane id=":J52_1_1" index="1" speed="26.80" length="9.44" shape="874.42,0.04 865.00,-0.35"/>
        <lane id=":J52_1_2" index="2" speed="26.80" length="9.44" shape="874.58,-3.15 865.05,-3.55"/>
    </edge>
    <edge id=":J53_0" function="internal">
        <lane id=":J53_0_0" index="0" speed="26.80" length="8.15" shape="882.67,1.92 880.25,2.12 878.63,2.63 877.00,3.12 874.59,3.25"/>
        <lane id=":J53_0_1" index="1" speed="26.80" length="8.15" shape="882.72,-1.28 880.34,-1.08 878.73,-0.56 877.13,-0.08 874.75,0.06"/>
        <lane id=":J53_0_2" index="2" speed="26.80" length="8.15" shape="882.72,-1.28 880.37,-1.57 878.81,-2.16 877.25,-2.78 874.91,-3.14"/>
    </edge>
    <edge id=":J54_0" function="internal">
        <lane id=":J54_0_0" index="0" speed="23.45" length="3.05" shape="884.65,33.19 884.01,32.42 883.66,31.82 883.38,31.18 882.91,30.27"/>
        <lane id=":J54_0_1" index="1" speed="23.45" length="3.05" shape="886.98,31.00 886.49,30.39 886.24,29.91 886.04,29.39 885.68,28.68"/>
    </edge>
    <edge id=":J55_0" function="internal">
        <lane id=":J55_0_0" index="0" speed="20.34" length="2.86" shape="826.18,8.64 825.62,9.28 825.31,9.77 825.04,10.29 824.60,11.02"/>
    </edge>
    <edge id=":J56_0" function="internal">
        <lane id=":J56_0_0" index="0" speed="8.76" length="5.32" shape="933.98,4.40 932.44,4.50 931.42,4.84 930.50,5.48 929.27,6.48"/>
    </edge>
    <edge id=":J56_1" function="internal">
        <lane id=":J56_1_0" index="0" speed="26.80" length="6.21" shape="933.98,1.20 932.18,1.43 930.99,1.95 929.79,2.46 927.99,2.67"/>
        <lane id=":J56_1_1" index="1" speed="26.80" length="6.21" shape="933.99,-2.00 932.20,-1.77 931.01,-1.25 929.83,-0.74 928.04,-0.53"/>
    </edge>
    <edge id=":J58_0" function="internal">
        <lane id=":J58_0_0" index="0" speed="20.34" length="1.60" shape="917.67,15.57 918.60,16.87"/>
    </edge>
    <edge id=":J6_0" function="internal">
        <lane id=":J6_0_0" index="0" speed="9.30" length="5.57" shape="14.28,0.41 12.98,-0.62 12.02,-1.30 10.96,-1.68 9.35,-1.82"/>
    </edge>
    <edge id=":J6_1" function="internal">
        <lane id=":J6_1_0" index="0" speed="26.80" length="6.44" shape="15.56,-3.36 13.70,-3.62 12.48,-4.18 11.26,-4.74 9.40,-5.02"/>
    </edge>
    <edge id=":J60_0" function="internal">
        <lane id=":J60_0_0" index="0" speed="7.51" length="5.54" shape="1017.23,7.01 1016.10,5.91 1014.93,5.12 1013.72,4.65 1012.48,4.49"/>
    </edge>
    <edge id=":J60_1" function="internal">
        <lane id=":J60_1_0" index="0" speed="26.80" length="6.93" shape="1019.08,3.05 1017.09,2.74 1015.78,2.14 1014.48,1.56 1012.48,1.29"/>
        <lane id=":J60_1_1" index="1" speed="26.80" length="6.93" shape="1019.16,-0.15 1017.14,-0.46 1015.82,-1.06 1014.50,-1.64 1012.49,-1.91"/>
    </edge>
    <edge id=":J63_0" function="internal">
        <lane id=":J63_0_0" index="0" speed="23.45" length="3.21" shape="1021.17,18.75 1023.50,16.55"/>
        <lane id=":J63_0_1" index="1" speed="23.45" length="3.21" shape="1023.67,16.76 1025.90,14.44"/>
    </edge>
    <edge id=":J65_0" function="internal">
        <lane id=":J65_0_0" index="0" speed="10.79" length="7.17" shape="1068.79,4.24 1066.77,4.64 1065.51,5.33 1064.41,6.39 1062.86,7.87"/>
    </edge>
    <edge id=":J65_1" function="internal">
        <lane id=":J65_1_0" index="0" speed="26.80" length="7.13" shape="1068.79,4.24 1066.63,4.38 1065.14,4.32 1063.65,4.17 1061.48,4.05"/>
        <lane id=":J65_1_1" index="1" speed="26.80" length="7.13" shape="1068.46,1.06 1066.42,1.18 1065.01,1.12 1063.61,0.96 1061.55,0.85"/>
    </edge>
    <edge id=":J66_0" function="internal">
        <lane id=":J66_0_0" index="0" speed="20.34" length="2.48" shape="1046.23,22.36 1045.70,22.88 1045.36,23.26 1045.01,23.61 1044.42,24.04"/>
    </edge>
    <edge id=":J7_0" function="internal">
        <lane id=":J7_0_0" index="0" speed="23.45" length="0.40" shape="28.13,14.98 28.09,14.94 28.06,14.91 28.03,14.89 27.98,14.85"/>
        <lane id=":J7_0_1" index="1" speed="23.45" length="0.40" shape="30.37,12.69 30.24,12.57 30.15,12.49 30.06,12.41 29.92,12.30"/>
    </edge>
    <edge id=":J70_0" function="internal">
        <lane id=":J70_0_0" index="0" speed="17.53" length="13.00" shape="1143.06,0.73 1140.06,-0.62 1137.49,-1.69 1134.59,-2.26 1130.62,-2.17"/>
    </edge>
    <edge id=":J70_1" function="internal">
        <lane id=":J70_1_0" index="0" speed="26.80" length="13.05" shape="1143.58,-4.65 1139.75,-3.80 1137.14,-3.17 1134.50,-2.66 1130.62,-2.17"/>
        <lane id=":J70_1_1" index="1" speed="26.80" length="13.05" shape="1142.94,-7.78 1139.20,-6.96 1136.65,-6.33 1134.08,-5.83 1130.29,-5.35"/>
    </edge>
    <edge id=":J72_0" function="internal">
        <lane id=":J72_0_0" index="0" speed="23.45" length="3.20" shape="1160.72,13.27 1162.30,10.48"/>
        <lane id=":J72_0_1" index="1" speed="23.45" length="3.20" shape="1162.18,10.42 1163.52,7.52"/>
    </edge>
    <edge id=":J74_0" function="internal">
        <lane id=":J74_0_0" index="0" speed="20.10" length="0.59" shape="1852.70,76.84 1852.58,76.61 1852.51,76.44 1852.45,76.27 1852.37,76.02"/>
        <lane id=":J74_0_1" index="1" speed="20.10" length="0.59" shape="1855.55,75.39 1855.51,75.32 1855.49,75.26 1855.47,75.20 1855.44,75.12"/>
    </edge>
    <edge id=":J75_0" function="internal">
        <lane id=":J75_0_0" index="0" speed="9.47" length="6.86" shape="1200.21,-16.16 1198.39,-15.46 1197.34,-14.57 1196.53,-13.33 1195.45,-11.59"/>
    </edge>
    <edge id=":J75_1" function="internal">
        <lane id=":J75_1_0" index="0" speed="26.80" length="7.29" shape="1200.21,-16.16 1192.97,-14.67"/>