<?xml version="1.0" encoding="UTF-8"?>

<!-- generated on 2025-12-26T17:29:55.514643-06:00 by Eclipse SUMO netedit 1.25.0
<neteditConfiguration xmlns:xsi="http://www.w3.org/2001/XMLSchema-instance" xsi:noNamespaceSchemaLocation="http://sumo.dlr.de/xsd/neteditConfiguration.xsd">

    <input>
        <sumo-net-file value="C:\Users\micha\Downloads\610\610EB.net.xml"/>
    </input>

    <output>
        <output-file value="C:\Users\micha\Downloads\610\610EB.net.xml"/>
    </output>

    <processing>
        <geometry.min-radius.fix.railways value="false"/>
        <geometry.avoid-overlap value="false"/>
        <geometry.max-grade.fix value="false"/>
        <offset.disable-normalization value="true"/>
        <lefthand value="0"/>
    </processing>

    <junctions>
        <no-turnarounds value="true"/>
        <junctions.corner-detail value="5"/>
        <junctions.limit-turn-speed value="5.50"/>
        <rectangular-lane-cut value="0"/>
    </junctions>

    <pedestrian>
        <walkingareas value="0"/>
    </pedestrian>

</neteditConfiguration>
-->

<net version="1.20" junctionCornerDetail="5" limitTurnSpeed="5.50" avoidOverlap="0" xmlns:xsi="http://www.w3.org/2001/XMLSchema-instance" xsi:noNamespaceSchemaLocation="http://sumo.dlr.de/xsd/net_file.xsd">

    <location netOffset="0.00,0.00" convBoundary="-82.28,-127.03,2003.87,6.18" origBoundary="-10000000000.00,-10000000000.00,10000000000.00,10000000000.00" projParameter="!"/>

    <edge id=":J10_0" function="internal">
        <lane id=":J10_0_0" index="0" speed="7.49" length="5.48" shape="58.93,-14.54 60.16,-14.69 61.36,-15.15 62.52,-15.92 63.64,-16.99"/>
    </edge>
    <edge id=":J10_1" function="internal">
        <lane id=":J10_1_0" index="0" speed="26.80" length="6.83" shape="58.91,-11.34 60.88,-11.59 62.18,-12.16 63.48,-12.73 65.45,-13.00"/>
        <lane id=":J10_1_1" index="1" speed="26.80" length="6.83" shape="58.90,-8.14 60.89,-8.39 62.19,-8.96 63.50,-9.53 65.48,-9.80"/>
    </edge>
    <edge id=":J101_0" function="internal">
        <lane id=":J101_0_0" index="0" speed="20.34" length="3.17" shape="1637.96,-44.28 1638.73,-44.83 1639.24,-45.23 1639.77,-45.59 1640.62,-45.98"/>
    </edge>
    <edge id=":J103_0" function="internal">
        <lane id=":J103_0_0" index="0" speed="9.48" length="9.63" shape="1707.56,-11.09 1709.71,-11.00 1711.90,-11.48 1714.12,-12.54 1716.37,-14.17"/>
    </edge>
    <edge id=":J103_1" function="internal">
        <lane id=":J103_1_0" index="0" speed="26.80" length="10.43" shape="1707.56,-11.09 1717.68,-9.95"/>
        <lane id=":J103_1_1" index="1" speed="26.80" length="10.43" shape="1707.00,-7.94 1717.36,-6.77"/>
        <lane id=":J103_1_2" index="2" speed="26.80" length="10.43" shape="1706.43,-4.79 1717.04,-3.58"/>
    </edge>
    <edge id=":J105_0" function="internal">
        <lane id=":J105_0_0" index="0" speed="20.34" length="2.91" shape="1716.99,-14.70 1717.63,-15.28 1718.02,-15.72 1718.40,-16.18 1718.97,-16.83"/>
    </edge>
    <edge id=":J109_0" function="internal">
        <lane id=":J109_0_0" index="0" speed="8.02" length="8.71" shape="1842.88,2.65 1844.77,2.53 1846.59,1.77 1848.33,0.39 1850.00,-1.63"/>
    </edge>
    <edge id=":J109_1" function="internal">
        <lane id=":J109_1_0" index="0" speed="26.80" length="9.80" shape="1842.88,2.65 1845.67,2.87 1847.59,2.91 1849.52,2.85 1852.33,2.79"/>
        <lane id=":J109_1_1" index="1" speed="26.80" length="9.80" shape="1842.56,5.83 1845.45,6.07 1847.44,6.11 1849.44,6.05 1852.34,5.99"/>
        <lane id=":J109_1_2" index="2" speed="26.80" length="9.80" shape="1842.24,9.01 1845.23,9.26 1847.29,9.31 1849.35,9.25 1852.36,9.19"/>
    </edge>
    <edge id=":J11_0" function="internal">
        <lane id=":J11_0_0" index="0" speed="20.34" length="2.93" shape="70.26,-24.40 70.82,-25.06 71.17,-25.54 71.50,-26.04 72.00,-26.75"/>
    </edge>
    <edge id=":J110_0" function="internal">
        <lane id=":J110_0_0" index="0" speed="10.35" length="9.92" shape="1859.97,2.75 1862.31,2.48 1864.55,1.71 1866.69,0.43 1868.73,-1.36"/>
    </edge>
    <edge id=":J110_1" function="internal">
        <lane id=":J110_1_0" index="0" speed="26.80" length="10.51" shape="1859.97,2.75 1870.42,2.52"/>
        <lane id=":J110_1_1" index="1" speed="26.80" length="10.51" shape="1859.99,5.95 1870.50,5.71"/>
        <lane id=":J110_1_2" index="2" speed="26.80" length="10.51" shape="1860.01,9.15 1870.58,8.91"/>
    </edge>
    <edge id=":J111_0" function="internal">
        <lane id=":J111_0_0" index="0" speed="26.80" length="8.19" shape="1883.61,5.38 1886.00,5.07 1887.59,4.49 1889.18,3.91 1891.58,3.63"/>
        <lane id=":J111_0_1" index="1" speed="26.80" length="8.19" shape="1883.69,8.58 1886.07,8.27 1887.65,7.69 1889.23,7.11 1891.61,6.83"/>
    </edge>
    <edge id=":J112_0" function="internal">
        <lane id=":J112_0_0" index="0" speed="7.31" length="4.11" shape="1938.25,-1.77 1939.15,-0.97 1939.88,-0.53 1940.71,-0.34 1941.91,-0.27"/>
    </edge>
    <edge id=":J112_1" function="internal">
        <lane id=":J112_1_0" index="0" speed="26.80" length="4.44" shape="1937.90,3.10 1941.91,-0.27"/>
        <lane id=":J112_1_1" index="1" speed="26.80" length="4.44" shape="1937.90,3.10 1941.82,2.93"/>
        <lane id=":J112_1_2" index="2" speed="26.80" length="4.44" shape="1937.94,6.30 1941.74,6.13"/>
        <lane id=":J112_1_3" index="3" speed="26.80" length="4.44" shape="1937.94,6.30 1941.65,9.33"/>
    </edge>
    <edge id=":J113_0" function="internal">
        <lane id=":J113_0_0" index="0" speed="26.80" length="0.30" shape="1974.55,0.62 1974.84,0.63"/>
        <lane id=":J113_0_1" index="1" speed="26.80" length="0.30" shape="1974.46,3.82 1974.76,3.82"/>
        <lane id=":J113_0_2" index="2" speed="26.80" length="0.30" shape="1974.38,7.02 1974.68,7.02"/>
        <lane id=":J113_0_3" index="3" speed="26.80" length="0.30" shape="1974.29,10.21 1974.60,10.22"/>
    </edge>
    <edge id=":J115_0" function="internal">
        <lane id=":J115_0_0" index="0" speed="20.34" length="2.87" shape="1852.55,-5.27 1853.00,-5.99 1853.25,-6.51 1853.46,-7.06 1853.80,-7.85"/>
    </edge>
    <edge id=":J116_0" function="internal">
        <lane id=":J116_0_0" index="0" speed="20.34" length="2.87" shape="1869.83,-2.49 1870.39,-3.12 1870.72,-3.60 1871.01,-4.11 1871.47,-4.83"/>
    </edge>
    <edge id=":J117_0" function="internal">
        <lane id=":J117_0_0" index="0" speed="23.45" length="0.62" shape="1895.95,-43.97 1895.57,-43.67"/>
        <lane id=":J117_0_1" index="1" speed="23.45" length="0.62" shape="1894.15,-41.33 1893.39,-41.33"/>
    </edge>
    <edge id=":J12_0" function="internal">
        <lane id=":J12_0_0" index="0" speed="4.94" length="3.02" shape="122.45,-13.80 125.16,-15.13"/>
    </edge>
    <edge id=":J12_1" function="internal">
        <lane id=":J12_1_0" index="0" speed="26.80" length="7.81" shape="117.55,-13.49 119.83,-13.26 121.36,-12.72 122.88,-12.18 125.16,-11.93"/>
        <lane id=":J12_1_1" index="1" speed="26.80" length="7.81" shape="117.58,-10.29 119.85,-10.06 121.37,-9.52 122.89,-8.98 125.16,-8.73"/>
    </edge>
    <edge id=":J13_0" function="internal">
        <lane id=":J13_0_0" index="0" speed="26.80" length="8.21" shape="128.96,-11.93 131.36,-12.18 132.96,-12.73 134.56,-13.28 136.96,-13.54"/>
        <lane id=":J13_0_1" index="1" speed="26.80" length="8.21" shape="128.96,-8.73 131.36,-8.98 132.96,-9.53 134.56,-10.08 136.96,-10.34"/>
    </edge>
    <edge id=":J14_0" function="internal">
        <lane id=":J14_0_0" index="0" speed="23.45" length="2.77" shape="120.76,-21.18 121.14,-20.52 121.38,-20.06 121.65,-19.62 122.11,-19.03"/>
        <lane id=":J14_0_1" index="1" speed="23.45" length="2.77" shape="118.04,-19.50 118.49,-18.73 118.78,-18.19 119.10,-17.68 119.65,-16.97"/>
    </edge>
    <edge id=":J151_0" function="internal">
        <lane id=":J151_0_0" index="0" speed="20.10" length="1.16" shape="104.60,-47.61 104.63,-47.44 104.67,-47.33 104.72,-47.22 104.81,-47.08"/>
        <lane id=":J151_0_1" index="1" speed="10.10" length="1.16" shape="101.46,-47.00 101.56,-46.50 101.66,-46.16 101.82,-45.84 102.08,-45.40"/>
    </edge>
    <edge id=":J153_0" function="internal">
        <lane id=":J153_0_0" index="0" speed="20.10" length="0.33" shape="403.49,-42.49 403.60,-42.39 403.67,-42.32 403.74,-42.25 403.84,-42.14"/>
        <lane id=":J153_0_1" index="1" speed="20.10" length="0.33" shape="401.32,-40.14 401.35,-40.11 401.38,-40.09 401.40,-40.06 401.43,-40.03"/>
    </edge>
    <edge id=":J156_0" function="internal">
        <lane id=":J156_0_0" index="0" speed="20.10" length="0.59" shape="641.30,-41.41 641.43,-41.19 641.52,-41.03 641.59,-40.86 641.68,-40.62"/>
        <lane id=":J156_0_1" index="1" speed="20.10" length="0.59" shape="638.55,-39.78 638.59,-39.71 638.62,-39.66 638.64,-39.60 638.67,-39.52"/>
    </edge>
    <edge id=":J158_0" function="internal">
        <lane id=":J158_0_0" index="0" speed="20.10" length="0.25" shape="831.38,-44.58 831.50,-44.42"/>
        <lane id=":J158_0_1" index="1" speed="20.10" length="0.25" shape="828.80,-42.70 828.98,-42.45"/>
    </edge>
    <edge id=":J16_0" function="internal">
        <lane id=":J16_0_0" index="0" speed="11.01" length="8.24" shape="252.11,-13.75 254.43,-14.01 255.91,-14.74 257.24,-15.93 259.11,-17.54"/>
    </edge>
    <edge id=":J16_1" function="internal">
        <lane id=":J16_1_0" index="0" speed="26.80" length="8.28" shape="252.11,-13.75 260.38,-13.76"/>
        <lane id=":J16_1_1" index="1" speed="26.80" length="8.28" shape="252.11,-10.55 260.39,-10.56"/>
    </edge>
    <edge id=":J160_0" function="internal">
        <lane id=":J160_0_0" index="0" speed="20.10" length="0.66" shape="921.60,-44.24 921.84,-44.07 922.00,-43.94 922.15,-43.80 922.35,-43.59"/>
        <lane id=":J160_0_1" index="1" speed="20.10" length="0.66" shape="919.78,-41.61 919.86,-41.55 919.91,-41.51 919.96,-41.46 920.03,-41.39"/>
    </edge>
    <edge id=":J162_0" function="internal">
        <lane id=":J162_0_0" index="0" speed="20.10" length="0.27" shape="1042.58,-42.25 1042.88,-41.98"/>
        <lane id=":J162_0_1" index="1" speed="20.10" length="0.27" shape="1040.55,-39.77 1040.65,-39.68"/>
    </edge>
    <edge id=":J164_0" function="internal">
        <lane id=":J164_0_0" index="0" speed="20.10" length="0.48" shape="1165.10,-55.34 1165.24,-55.18 1165.33,-55.07 1165.42,-54.95 1165.53,-54.77"/>
        <lane id=":J164_0_1" index="1" speed="20.10" length="0.48" shape="1162.71,-53.21 1162.76,-53.15 1162.79,-53.12 1162.82,-53.08 1162.86,-53.02"/>
    </edge>
    <edge id=":J166_0" function="internal">
        <lane id=":J166_0_0" index="0" speed="20.10" length="0.57" shape="1300.42,-90.76 1300.49,-90.72 1300.54,-90.69 1300.59,-90.67 1300.67,-90.64"/>
        <lane id=":J166_0_1" index="1" speed="20.10" length="0.57" shape="1298.76,-88.03 1298.98,-87.89 1299.13,-87.81 1299.29,-87.74 1299.53,-87.65"/>
    </edge>
    <edge id=":J168_0" function="internal">
        <lane id=":J168_0_0" index="0" speed="20.10" length="0.51" shape="1476.30,-118.65 1476.41,-118.46 1476.48,-118.32 1476.55,-118.18 1476.63,-117.97"/>
        <lane id=":J168_0_1" index="1" speed="20.10" length="0.51" shape="1473.55,-117.02 1473.58,-116.95 1473.61,-116.91 1473.63,-116.86 1473.66,-116.79"/>
    </edge>
    <edge id=":J173_0" function="internal">
        <lane id=":J173_0_0" index="0" speed="20.10" length="3.48" shape="1898.62,-42.15 1895.79,-44.09"/>
        <lane id=":J173_0_1" index="1" speed="20.10" length="3.48" shape="1896.90,-39.45 1893.98,-41.45"/>
    </edge>
    <edge id=":J19_0" function="internal">
        <lane id=":J19_0_0" index="0" speed="5.13" length="2.29" shape="428.07,-13.24 428.55,-15.48"/>
    </edge>
    <edge id=":J19_1" function="internal">
        <lane id=":J19_1_0" index="0" speed="26.80" length="6.64" shape="422.15,-13.89 424.07,-13.64 425.34,-13.09 426.61,-12.54 428.53,-12.28"/>
        <lane id=":J19_1_1" index="1" speed="26.80" length="6.64" shape="422.15,-10.69 424.07,-10.44 425.33,-9.89 426.60,-9.34 428.52,-9.08"/>
    </edge>
    <edge id=":J199_0" function="internal">
        <lane id=":J199_0_0" index="0" speed="26.80" length="3.49" shape="120.02,-16.53 120.74,-15.79 121.31,-15.33 121.81,-14.84 122.36,-13.97"/>
    </edge>
    <edge id=":J2_0" function="internal">
        <lane id=":J2_0_0" index="0" speed="23.45" length="0.30" shape="-57.60,-13.60 -57.31,-13.60"/>
        <lane id=":J2_0_1" index="1" speed="23.45" length="0.30" shape="-57.64,-10.40 -57.33,-10.40"/>
    </edge>
    <edge id=":J20_0" function="internal">
        <lane id=":J20_0_0" index="0" speed="20.34" length="2.91" shape="262.23,-19.92 262.90,-20.46 263.32,-20.88 263.73,-21.31 264.33,-21.93"/>
    </edge>
    <edge id=":J200_0" function="internal">
        <lane id=":J200_0_0" index="0" speed="26.80" length="2.27" shape="425.90,-14.30 426.50,-14.00 426.98,-13.92 427.44,-13.79 427.94,-13.39"/>
    </edge>
    <edge id=":J201_0" function="internal">
        <lane id=":J201_0_0" index="0" speed="26.80" length="7.93" shape="647.98,-26.70 648.78,-24.46 648.65,-22.65 648.58,-20.89 649.57,-18.78"/>
        <lane id=":J201_0_1" index="1" speed="26.80" length="7.93" shape="645.26,-25.01 646.45,-23.10 647.30,-21.82 648.21,-20.57 649.57,-18.78"/>
    </edge>
    <edge id=":J202_0" function="internal">
        <lane id=":J202_0_0" index="0" speed="26.80" length="7.94" shape="840.98,-30.45 841.58,-28.15 841.29,-26.36 841.07,-24.60 841.87,-22.41"/>
        <lane id=":J202_0_1" index="1" speed="26.80" length="7.94" shape="838.12,-29.01 839.14,-27.00 839.87,-25.64 840.67,-24.32 841.87,-22.41"/>
    </edge>
    <edge id=":J203_0" function="internal">
        <lane id=":J203_0_0" index="0" speed="26.80" length="8.21" shape="936.92,-23.98 938.43,-22.11 939.18,-20.59 939.92,-19.06 941.44,-17.19"/>
        <lane id=":J203_0_1" index="1" speed="26.80" length="8.21" shape="934.65,-21.72 936.52,-20.20 938.04,-19.45 939.57,-18.71 941.44,-17.19"/>
    </edge>
    <edge id=":J204_0" function="internal">
        <lane id=":J204_0_0" index="0" speed="26.80" length="8.21" shape="1055.81,-24.70 1057.31,-22.81 1058.04,-21.28 1058.77,-19.75 1060.27,-17.86"/>
        <lane id=":J204_0_1" index="1" speed="26.80" length="8.21" shape="1053.53,-22.46 1055.38,-20.92 1056.90,-20.16 1058.41,-19.40 1060.27,-17.86"/>
    </edge>
    <edge id=":J205_0" function="internal">
        <lane id=":J205_0_0" index="0" speed="26.80" length="8.21" shape="1176.23,-40.13 1178.44,-39.17 1179.80,-38.16 1181.16,-37.16 1183.37,-36.20"/>
        <lane id=":J205_0_1" index="1" speed="26.80" length="8.21" shape="1175.26,-37.08 1177.63,-36.60 1179.32,-36.64 1181.01,-36.68 1183.37,-36.20"/>
    </edge>
    <edge id=":J206_0" function="internal">
        <lane id=":J206_0_0" index="0" speed="26.80" length="8.21" shape="1316.42,-80.85 1318.49,-79.62 1319.72,-78.46 1320.95,-77.29 1323.03,-76.07"/>
        <lane id=":J206_0_1" index="1" speed="26.80" length="8.21" shape="1315.09,-77.94 1317.37,-77.17 1319.06,-77.00 1320.74,-76.84 1323.03,-76.07"/>
    </edge>
    <edge id=":J207_0" function="internal">
        <lane id=":J207_0_0" index="0" speed="26.80" length="7.89" shape="1484.17,-100.48 1484.84,-98.21 1484.58,-96.43 1484.33,-94.66 1485.07,-92.43"/>
        <lane id=":J207_0_1" index="1" speed="26.80" length="7.89" shape="1481.37,-98.94 1485.07,-92.43"/>
    </edge>
    <edge id=":J208_0" function="internal">
        <lane id=":J208_0_0" index="0" speed="26.80" length="8.21" shape="1923.52,-17.66 1925.11,-15.84 1925.91,-14.35 1926.70,-12.85 1928.29,-11.03"/>
        <lane id=":J208_0_1" index="1" speed="26.80" length="8.21" shape="1921.34,-15.31 1923.27,-13.86 1924.81,-13.17 1926.36,-12.49 1928.29,-11.03"/>
    </edge>
    <edge id=":J21_0" function="internal">
        <lane id=":J21_0_0" index="0" speed="23.45" length="2.64" shape="421.62,-21.88 422.04,-21.36 422.31,-20.98 422.62,-20.63 423.14,-20.22"/>
        <lane id=":J21_0_1" index="1" speed="23.45" length="2.64" shape="419.21,-19.77 419.78,-19.08 420.16,-18.60 420.58,-18.16 421.28,-17.61"/>
    </edge>
    <edge id=":J22_0" function="internal">
        <lane id=":J22_0_0" index="0" speed="26.80" length="8.21" shape="434.32,-12.25 436.72,-12.49 438.33,-13.03 439.93,-13.57 442.33,-13.79"/>
        <lane id=":J22_0_1" index="1" speed="26.80" length="8.21" shape="434.30,-9.05 436.70,-9.29 438.30,-9.83 439.91,-10.37 442.31,-10.60"/>
    </edge>
    <edge id=":J27_0" function="internal">
        <lane id=":J27_0_0" index="0" speed="26.80" length="8.21" shape="601.45,-12.40 603.86,-12.63 605.46,-13.17 607.07,-13.70 609.47,-13.93"/>
        <lane id=":J27_0_1" index="1" speed="26.80" length="8.21" shape="601.45,-12.40 603.85,-12.13 605.45,-11.57 607.04,-11.00 609.44,-10.73"/>
        <lane id=":J27_0_2" index="2" speed="26.80" length="8.21" shape="601.43,-9.21 603.82,-8.93 605.42,-8.37 607.01,-7.80 609.40,-7.53"/>
    </edge>
    <edge id=":J3_0" function="internal">
        <lane id=":J3_0_0" index="0" speed="26.80" length="8.21" shape="25.31,-13.07 27.71,-13.30 29.31,-13.84 30.91,-14.38 33.31,-14.63"/>
        <lane id=":J3_0_1" index="1" speed="26.80" length="8.21" shape="25.31,-13.07 27.71,-12.80 29.31,-12.24 30.90,-11.68 33.30,-11.43"/>
        <lane id=":J3_0_2" index="2" speed="26.80" length="8.21" shape="25.29,-9.87 27.69,-9.60 29.29,-9.04 30.89,-8.48 33.29,-8.23"/>
    </edge>
    <edge id=":J30_0" function="internal">
        <lane id=":J30_0_0" index="0" speed="6.71" length="6.12" shape="619.30,-13.82 620.88,-13.99 622.24,-14.54 623.38,-15.46 624.29,-16.77"/>
    </edge>
    <edge id=":J30_1" function="internal">
        <lane id=":J30_1_0" index="0" speed="26.80" length="7.91" shape="619.26,-10.62 621.56,-10.85 623.10,-11.39 624.63,-11.95 626.94,-12.20"/>
        <lane id=":J30_1_1" index="1" speed="26.80" length="7.91" shape="619.23,-7.42 621.54,-7.65 623.08,-8.19 624.62,-8.75 626.93,-9.00"/>
    </edge>
    <edge id=":J31_0" function="internal">
        <lane id=":J31_0_0" index="0" speed="7.09" length="5.68" shape="651.41,-16.38 652.46,-15.25 653.62,-14.45 654.89,-13.98 656.26,-13.85"/>
    </edge>
    <edge id=":J31_1" function="internal">
        <lane id=":J31_1_0" index="0" speed="26.80" length="7.26" shape="649.35,-12.19 651.45,-11.94 652.84,-11.39 654.24,-10.86 656.34,-10.65"/>
        <lane id=":J31_1_1" index="1" speed="26.80" length="7.26" shape="649.35,-8.99 651.47,-8.74 652.88,-8.19 654.30,-7.66 656.42,-7.45"/>
    </edge>
    <edge id=":J34_0" function="internal">
        <lane id=":J34_0_0" index="0" speed="26.80" length="8.14" shape="672.40,-11.06 674.78,-11.37 676.37,-11.95 677.97,-12.50 680.36,-12.74"/>
        <lane id=":J34_0_1" index="1" speed="26.80" length="8.14" shape="672.48,-7.86 674.83,-8.17 676.41,-8.75 677.98,-9.30 680.34,-9.54"/>
    </edge>
    <edge id=":J35_0" function="internal">
        <lane id=":J35_0_0" index="0" speed="23.45" length="0.66" shape="644.96,-31.62 645.00,-31.53 645.02,-31.47 645.06,-31.41 645.11,-31.33"/>
        <lane id=":J35_0_1" index="1" speed="23.45" length="0.66" shape="641.96,-30.53 642.06,-30.25 642.14,-30.07 642.23,-29.89 642.39,-29.64"/>
    </edge>
    <edge id=":J36_0" function="internal">
        <lane id=":J36_0_0" index="0" speed="20.34" length="2.80" shape="626.35,-20.61 626.69,-21.35 626.82,-21.90 626.88,-22.48 627.02,-23.30"/>
    </edge>
    <edge id=":J39_0" function="internal">
        <lane id=":J39_0_0" index="0" speed="12.84" length="9.02" shape="786.66,-12.10 789.23,-12.34 790.88,-13.09 792.40,-14.28 794.59,-15.86"/>
    </edge>
    <edge id=":J39_1" function="internal">
        <lane id=":J39_1_0" index="0" speed="26.80" length="9.03" shape="786.66,-12.10 795.68,-12.11"/>
        <lane id=":J39_1_1" index="1" speed="26.80" length="9.03" shape="786.64,-8.90 795.68,-8.91"/>
    </edge>
    <edge id=":J44_0" function="internal">
        <lane id=":J44_0_0" index="0" speed="20.34" length="0.67" shape="811.77,-26.75 811.93,-26.86 812.04,-26.94 812.13,-27.05 812.24,-27.21"/>
    </edge>
    <edge id=":J45_0" function="internal">
        <lane id=":J45_0_0" index="0" speed="26.80" length="8.21" shape="817.63,-12.12 820.03,-12.37 821.63,-12.92 823.23,-13.47 825.63,-13.72"/>
        <lane id=":J45_0_1" index="1" speed="26.80" length="8.21" shape="817.63,-8.92 820.03,-9.17 821.63,-9.72 823.23,-10.27 825.63,-10.52"/>
        <lane id=":J45_0_2" index="2" speed="26.80" length="8.21" shape="817.63,-8.92 820.03,-8.67 821.63,-8.12 823.23,-7.57 825.63,-7.32"/>
    </edge>
    <edge id=":J46_0" function="internal">
        <lane id=":J46_0_0" index="0" speed="7.68" length="7.67" shape="844.61,-18.10 846.03,-16.19 847.49,-14.84 849.01,-14.04 850.58,-13.81"/>
    </edge>
    <edge id=":J46_1" function="internal">
        <lane id=":J46_1_0" index="0" speed="26.80" length="8.47" shape="842.21,-13.72 850.58,-13.81"/>
        <lane id=":J46_1_1" index="1" speed="26.80" length="8.47" shape="842.21,-10.52 850.67,-10.61"/>
        <lane id=":J46_1_2" index="2" speed="26.80" length="8.47" shape="842.21,-7.32 850.77,-7.41"/>
    </edge>
    <edge id=":J47_0" function="internal">
        <lane id=":J47_0_0" index="0" speed="23.45" length="0.62" shape="838.09,-35.97 838.26,-35.75 838.36,-35.59 838.46,-35.43 838.58,-35.18"/>
        <lane id=":J47_0_1" index="1" speed="23.45" length="0.62" shape="835.56,-34.00 835.62,-33.93 835.65,-33.88 835.69,-33.82 835.73,-33.74"/>
    </edge>
    <edge id=":J48_0" function="internal">
        <lane id=":J48_0_0" index="0" speed="9.58" length="7.60" shape="874.48,-14.52 876.60,-14.82 877.93,-15.56 879.07,-16.77 880.62,-18.43"/>
    </edge>
    <edge id=":J48_1" function="internal">
        <lane id=":J48_1_0" index="0" speed="26.80" length="7.68" shape="874.48,-14.52 882.20,-14.63"/>
        <lane id=":J48_1_1" index="1" speed="26.80" length="7.68" shape="874.57,-11.32 882.25,-11.43"/>
        <lane id=":J48_1_2" index="2" speed="26.80" length="7.68" shape="874.66,-8.12 882.30,-8.23"/>
    </edge>
    <edge id=":J49_0" function="internal">
        <lane id=":J49_0_0" index="0" speed="20.34" length="2.86" shape="885.34,-23.01 885.92,-23.63 886.26,-24.10 886.55,-24.61 887.02,-25.32"/>
    </edge>
    <edge id=":J50_0" function="internal">
        <lane id=":J50_0_0" index="0" speed="26.80" length="8.16" shape="892.12,-11.59 894.52,-11.88 896.12,-12.45 897.71,-13.00 900.11,-13.23"/>
        <lane id=":J50_0_1" index="1" speed="26.80" length="8.16" shape="892.18,-8.39 894.55,-8.68 896.13,-9.25 897.71,-9.80 900.08,-10.03"/>
    </edge>
    <edge id=":J57_0" function="internal">
        <lane id=":J57_0_0" index="0" speed="7.86" length="5.33" shape="941.82,-16.80 942.94,-15.68 943.82,-14.98 944.84,-14.61 946.38,-14.49"/>
    </edge>
    <edge id=":J57_1" function="internal">
        <lane id=":J57_1_0" index="0" speed="26.80" length="6.40" shape="940.20,-12.93 942.05,-12.67 943.27,-12.12 944.49,-11.56 946.34,-11.29"/>
        <lane id=":J57_1_1" index="1" speed="26.80" length="6.40" shape="940.18,-9.73 942.02,-9.47 943.24,-8.92 944.45,-8.36 946.29,-8.09"/>
    </edge>
    <edge id=":J59_0" function="internal">
        <lane id=":J59_0_0" index="0" speed="23.45" length="3.21" shape="931.52,-33.92 929.39,-31.53"/>
        <lane id=":J59_0_1" index="1" speed="23.45" length="3.21" shape="929.20,-31.72 927.12,-29.27"/>
    </edge>
    <edge id=":J61_0" function="internal">
        <lane id=":J61_0_0" index="0" speed="9.03" length="7.60" shape="1012.36,-13.62 1013.64,-13.86 1015.12,-14.59 1016.80,-15.83 1018.67,-17.56"/>
    </edge>
    <edge id=":J61_1" function="internal">
        <lane id=":J61_1_0" index="0" speed="26.80" length="8.00" shape="1012.36,-13.62 1020.31,-13.63"/>
        <lane id=":J61_1_1" index="1" speed="26.80" length="8.00" shape="1012.31,-10.42 1020.31,-10.43"/>
        <lane id=":J61_1_2" index="2" speed="26.80" length="8.00" shape="1012.27,-7.22 1020.31,-7.23"/>
    </edge>
    <edge id=":J62_0" function="internal">
        <lane id=":J62_0_0" index="0" speed="26.80" length="8.21" shape="1025.00,-10.43 1027.40,-10.68 1029.00,-11.23 1030.60,-11.79 1032.99,-12.05"/>
        <lane id=":J62_0_1" index="1" speed="26.80" length="8.21" shape="1025.00,-7.23 1027.40,-7.48 1029.00,-8.03 1030.61,-8.59 1033.01,-8.85"/>
    </edge>
    <edge id=":J64_0" function="internal">
        <lane id=":J64_0_0" index="0" speed="13.89" length="0.63" shape="1025.26,-24.22 1025.39,-24.36 1025.47,-24.46 1025.53,-24.57 1025.60,-24.74"/>
    </edge>
    <edge id=":J67_0" function="internal">
        <lane id=":J67_0_0" index="0" speed="7.75" length="5.14" shape="1062.03,-16.07 1063.10,-14.99 1063.95,-14.32 1064.94,-13.97 1066.42,-13.85"/>
    </edge>
    <edge id=":J67_1" function="internal">
        <lane id=":J67_1_0" index="0" speed="26.80" length="6.13" shape="1060.41,-12.19 1062.20,-11.96 1063.38,-11.45 1064.55,-10.92 1066.34,-10.65"/>
        <lane id=":J67_1_1" index="1" speed="26.80" length="6.13" shape="1060.43,-8.99 1062.19,-8.76 1063.34,-8.25 1064.50,-7.72 1066.26,-7.45"/>
    </edge>
    <edge id=":J68_0" function="internal">
        <lane id=":J68_0_0" index="0" speed="26.80" length="7.39" shape="1071.22,-10.52 1073.30,-10.72 1074.66,-11.28 1076.02,-11.94 1078.08,-12.41"/>
        <lane id=":J68_0_1" index="1" speed="26.80" length="7.39" shape="1071.14,-7.32 1073.34,-7.52 1074.80,-8.08 1076.24,-8.74 1078.44,-9.23"/>
    </edge>
    <edge id=":J69_0" function="internal">
        <lane id=":J69_0_0" index="0" speed="23.45" length="3.20" shape="1052.09,-33.06 1049.99,-30.64"/>
        <lane id=":J69_0_1" index="1" speed="23.45" length="3.20" shape="1049.87,-30.76 1047.71,-28.40"/>
    </edge>
    <edge id=":J71_0" function="internal">
        <lane id=":J71_0_0" index="0" speed="10.87" length="9.28" shape="1130.93,-18.33 1133.46,-18.95 1134.95,-20.06 1136.17,-21.69 1137.92,-23.86"/>
    </edge>
    <edge id=":J71_1" function="internal">
        <lane id=":J71_1_0" index="0" speed="26.80" length="9.43" shape="1130.93,-18.33 1133.63,-18.73 1135.45,-19.19 1137.25,-19.75 1139.90,-20.46"/>
        <lane id=":J71_1_1" index="1" speed="26.80" length="9.43" shape="1131.28,-15.15 1134.10,-15.57 1136.00,-16.03 1137.88,-16.61 1140.64,-17.35"/>
    </edge>
    <edge id=":J73_0" function="internal">
        <lane id=":J73_0_0" index="0" speed="20.34" length="0.73" shape="1147.32,-33.98 1147.47,-34.14 1147.55,-34.26 1147.61,-34.40 1147.68,-34.60"/>
    </edge>
    <edge id=":J76_0" function="internal">
        <lane id=":J76_0_0" index="0" speed="11.62" length="5.48" shape="1186.09,-35.34 1187.63,-34.81 1188.72,-34.48 1189.83,-34.39 1191.41,-34.60"/>
    </edge>
    <edge id=":J76_1" function="internal">
        <lane id=":J76_1_0" index="0" speed="26.80" length="6.02" shape="1185.95,-31.46 1187.72,-31.67 1188.97,-31.51 1190.22,-31.32 1192.01,-31.46"/>
        <lane id=":J76_1_1" index="1" speed="26.80" length="6.02" shape="1186.70,-28.34 1188.42,-28.55 1189.64,-28.38 1190.86,-28.18 1192.60,-28.31"/>
    </edge>
    <edge id=":J78_0" function="internal">
        <lane id=":J78_0_0" index="0" speed="4.34" length="2.22" shape="1174.53,-41.05 1174.71,-40.78 1174.87,-40.61 1175.08,-40.50 1175.38,-40.40"/>
        <lane id=":J78_0_1" index="1" speed="6.91" length="2.22" shape="1171.85,-39.29 1172.41,-38.49 1172.89,-38.00 1173.49,-37.67 1174.42,-37.35"/>
    </edge>
    <edge id=":J79_0" function="internal">
        <lane id=":J79_0_0" index="0" speed="26.80" length="8.07" shape="1199.15,-32.81 1201.38,-33.48 1202.79,-34.33 1204.18,-35.23 1206.38,-36.04"/>
        <lane id=":J79_0_1" index="1" speed="26.80" length="8.07" shape="1199.75,-29.66 1202.04,-30.35 1203.48,-31.21 1204.91,-32.11 1207.17,-32.94"/>
    </edge>
    <edge id=":J82_0" function="internal">
        <lane id=":J82_0_0" index="0" speed="12.86" length="9.73" shape="1265.73,-51.11 1268.32,-52.09 1269.80,-53.36 1271.01,-55.07 1272.80,-57.37"/>
    </edge>
    <edge id=":J82_1" function="internal">
        <lane id=":J82_1_0" index="0" speed="26.80" length="9.77" shape="1265.73,-51.11 1274.92,-54.13"/>
        <lane id=":J82_1_1" index="1" speed="26.80" length="9.77" shape="1266.52,-48.01 1275.91,-51.09"/>
    </edge>
    <edge id=":J84_0" function="internal">
        <lane id=":J84_0_0" index="0" speed="20.34" length="0.61" shape="1276.66,-61.70 1276.78,-61.84 1276.85,-61.94 1276.90,-62.05 1276.97,-62.22"/>
    </edge>
    <edge id=":J88_0" function="internal">
        <lane id=":J88_0_0" index="0" speed="8.09" length="5.25" shape="1325.95,-74.73 1327.36,-74.07 1328.41,-73.70 1329.48,-73.67 1330.95,-74.03"/>
    </edge>
    <edge id=":J88_1" function="internal">
        <lane id=":J88_1_0" index="0" speed="26.80" length="6.25" shape="1325.72,-70.64 1327.52,-70.97 1328.81,-70.82 1330.11,-70.67 1331.91,-70.98"/>
        <lane id=":J88_1_1" index="1" speed="26.80" length="6.25" shape="1326.71,-67.60 1328.50,-67.92 1329.79,-67.77 1331.08,-67.62 1332.87,-67.93"/>
    </edge>
    <edge id=":J89_0" function="internal">
        <lane id=":J89_0_0" index="0" speed="23.45" length="3.20" shape="1313.03,-85.90 1311.97,-82.88"/>
        <lane id=":J89_0_1" index="1" speed="23.45" length="3.20" shape="1311.88,-82.91 1310.65,-79.96"/>
    </edge>
    <edge id=":J92_0" function="internal">
        <lane id=":J92_0_0" index="0" speed="6.86" length="5.31" shape="1402.04,-96.45 1403.29,-97.00 1404.32,-97.78 1405.11,-98.79 1405.67,-100.04"/>
    </edge>
    <edge id=":J92_1" function="internal">
        <lane id=":J92_1_0" index="0" speed="16.92" length="6.91" shape="1403.00,-93.40 1405.14,-94.10 1406.64,-94.50 1408.18,-94.62 1410.40,-94.46"/>