<?xml version="1.0" encoding="UTF-8"?>
<routes xmlns:xsi="http://www.w3.org/2001/XMLSchema-instance" xsi:noNamespaceSchemaLocation="http://sumo.dlr.de/xsd/routes_file.xsd">
<vType id="HV_M" length="5.00" minGap="3.40" maxSpeed="44.10" speedFactor="normc(1.00,0.10,0.20,2.00)" color="yellow" lcAssertive="5" carFollowModel="IDM" accel="1.06" decel="1.11" tau="1.26" delta="4"/>
<flow id="HV_1_0" type="HV_M" begin="0.00" departLane="0" departSpeed="avg" from="ent-EB610-94" to="exit-EB610/NBMapleGrove" end="3600.00" vehsPerHour="89.50"/>
<flow id="HV_1_1" type="HV_M" begin="0.00" departLane="1" departSpeed="avg" from="ent-EB610-94" to="exit-EB610/NBMapleGrove" end="3600.00" vehsPerHour="89.50"/>
<flow id="HV_2_0" type="HV_M" begin="0.00" departLane="0" departSpeed="avg" from="ent-EB610-94" to="exit-EB610/EB81" end="3600.00" vehsPerHour="153.50"/>
<flow id="HV_2_1" type="HV_M" begin="0.00" departLane="1" departSpeed="avg" from="ent-EB610-94" to="exit-EB610/EB81" end="3600.00" vehsPerHour="153.50"/>
<flow id="HV_3_0" type="HV_M" begin="0.00" departLane="0" departSpeed="avg" from="ent-EB610/SBMapleGrove" to="exit-EB610/EB81" end="3600.00" vehsPerHour="27.50"/>
<flow id="HV_3_1" type="HV_M" begin="0.00" departLane="1" departSpeed="avg" from="ent-EB610/SBMapleGrove" to="exit-EB610/EB81" end="3600.00" vehsPerHour="27.50"/>
<flow id="HV_4_0" type="HV_M" begin="0.00" departLane="0" departSpeed="avg" from="ent-EB610-94" to="exit-EB610/SBZachary" end="3600.00" vehsPerHour="40.50"/>
<flow id="HV_4_1" type="HV_M" begin="0.00" departLane="1" departSpeed="avg" from="ent-EB610-94" to="exit-EB610/SBZachary" end="3600.00" vehsPerHour="40.50"/>
<flow id="HV_5_0" type="HV_M" begin="0.00" departLane="0" departSpeed="avg" from="ent-EB610/EB81-2" to="exit-EB610/SBZachary" end="3600.00" vehsPerHour="6.00"/>
<flow id="HV_5_1" type="HV_M" begin="0.00" departLane="1" departSpeed="avg" from="ent-EB610/EB81-2" to="exit-EB610/SBZachary" end="3600.00" vehsPerHour="6.00"/>
<flow id="HV_6_0" type="HV_M" begin="0.00" departLane="0" departSpeed="avg" from="ent-EB610/SBMapleGrove" to="exit-EB610/SBZachary" end="3600.00" vehsPerHour="7.50"/>
<flow id="HV_6_1" type="HV_M" begin="0.00" departLane="1" departSpeed="avg" from="ent-EB610/SBMapleGrove" to="exit-EB610/SBZachary" end="3600.00" vehsPerHour="7.50"/>
<flow id="HV_7_0" type="HV_M" begin="0.00" departLane="0" departSpeed="avg" from="ent-EB610-94" to="exit-EB610/SB169" end="3600.00" vehsPerHour="140.50"/>
<flow id="HV_7_1" type="HV_M" begin="0.00" departLane="1" departSpeed="avg" from="ent-EB610-94" to="exit-EB610/SB169" end="3600.00" vehsPerHour="140.50"/>
<flow id="HV_8_0" type="HV_M" begin="0.00" departLane="0" departSpeed="avg" from="ent-EB610/EB81-2" to="exit-EB610/SB169" end="3600.00" vehsPerHour="20.50"/>
<flow id="HV_8_1" type="HV_M" begin="0.00" departLane="1" departSpeed="avg" from="ent-EB610/EB81-2" to="exit-EB610/SB169" end="3600.00" vehsPerHour="20.50"/>
<flow id="HV_9_0" type="HV_M" begin="0.00" departLane="0" departSpeed="avg" from="ent-EB610/NBZachary" to="exit-EB610/SB169" end="3600.00" vehsPerHour="18.50"/>
<flow id="HV_9_1" type="HV_M" begin="0.00" departLane="1" departSpeed="avg" from="ent-EB610/NBZachary" to="exit-EB610/SB169" end="3600.00" vehsPerHour="18.50"/>
<flow id="HV_10_0" type="HV_M" begin="0.00" departLane="0" departSpeed="avg" from="ent-EB610/SBMapleGrove" to="exit-EB610/SB169" end="3600.00" vehsPerHour="25.00"/>
<flow id="HV_10_1" type="HV_M" begin="0.00" departLane="1" departSpeed="avg" from="ent-EB610/SBMapleGrove" to="exit-EB610/SB169" end="3600.00" vehsPerHour="25.00"/>
<flow id="HV_11_0" type="HV_M" begin="0.00" departLane="0" departSpeed="avg" from="ent-EB610/SB169-2" to="exit-EB610/NB169" end="3600.00" vehsPerHour="20.50"/>
<flow id="HV_11_1" type="HV_M" begin="0.00" departLane="1" departSpeed="avg" from="ent-EB610/SB169-2" to="exit-EB610/NB169" end="3600.00" vehsPerHour="20.50"/>
<flow id="HV_12_0" type="HV_M" begin="0.00" departLane="0" departSpeed="avg" from="ent-EB610-94" to="exit-EB610/NB169" end="3600.00" vehsPerHour="64.00"/>
<flow id="HV_12_1" type="HV_M" begin="0.00" departLane="1" departSpeed="avg" from="ent-EB610-94" to="exit-EB610/NB169" end="3600.00" vehsPerHour="64.00"/>
<flow id="HV_13_0" type="HV_M" begin="0.00" departLane="0" departSpeed="avg" from="ent-EB610/EB81-2" to="exit-EB610/NB169" end="3600.00" vehsPerHour="9.50"/>
<flow id="HV_13_1" type="HV_M" begin="0.00" departLane="1" departSpeed="avg" from="ent-EB610/EB81-2" to="exit-EB610/NB169" end="3600.00" vehsPerHour="9.50"/>
<flow id="HV_14_0" type="HV_M" begin="0.00" departLane="0" departSpeed="avg" from="ent-EB610/NBZachary" to="exit-EB610/NB169" end="3600.00" vehsPerHour="8.50"/>
<flow id="HV_14_1" type="HV_M" begin="0.00" departLane="1" departSpeed="avg" from="ent-EB610/NBZachary" to="exit-EB610/NB169" end="3600.00" vehsPerHour="8.50"/>
<flow id="HV_15_0" type="HV_M" begin="0.00" departLane="0" departSpeed="avg" from="ent-EB610/SBMapleGrove" to="exit-EB610/NB169" end="3600.00" vehsPerHour="11.50"/>
<flow id="HV_15_1" type="HV_M" begin="0.00" departLane="1" departSpeed="avg" from="ent-EB610/SBMapleGrove" to="exit-EB610/NB169" end="3600.00" vehsPerHour="11.50"/>
<flow id="HV_16_0" type="HV_M" begin="0.00" departLane="0" departSpeed="avg" from="ent-EB610/SB169-2" to="exit-EB610/Broadway" end="3600.00" vehsPerHour="82.00"/>
<flow id="HV_16_1" type="HV_M" begin="0.00" departLane="1" departSpeed="avg" from="ent-EB610/SB169-2" to="exit-EB610/Broadway" end="3600.00" vehsPerHour="82.00"/>
<flow id="HV_17_0" type="HV_M" begin="0.00" departLane="0" departSpeed="avg" from="ent-EB610-94" to="exit-EB610/Broadway" end="3600.00" vehsPerHour="255.50"/>
<flow id="HV_17_1" type="HV_M" begin="0.00" departLane="1" departSpeed="avg" from="ent-EB610-94" to="exit-EB610/Broadway" end="3600.00" vehsPerHour="255.50"/>
<flow id="HV_18_0" type="HV_M" begin="0.00" departLane="0" departSpeed="avg" from="ent-EB610/EB81-2" to="exit-EB610/Broadway" end="3600.00" vehsPerHour="37.50"/>
<flow id="HV_18_1" type="HV_M" begin="0.00" departLane="1" departSpeed="avg" from="ent-EB610/EB81-2" to="exit-EB610/Broadway" end="3600.00" vehsPerHour="37.50"/>
<flow id="HV_19_0" type="HV_M" begin="0.00" departLane="0" departSpeed="avg" from="ent-EB610/NBZachary" to="exit-EB610/Broadway" end="3600.00" vehsPerHour="33.50"/>
<flow id="HV_19_1" type="HV_M" begin="0.00" departLane="1" departSpeed="avg" from="ent-EB610/NBZachary" to="exit-EB610/Broadway" end="3600.00" vehsPerHour="33.50"/>
<flow id="HV_20_0" type="HV_M" begin="0.00" departLane="0" departSpeed="avg" from="ent-EB610/NB169-2" to="exit-EB610/Broadway" end="3600.00" vehsPerHour="22.00"/>
<flow id="HV_20_1" type="HV_M" begin="0.00" departLane="1" departSpeed="avg" from="ent-EB610/NB169-2" to="exit-EB610/Broadway" end="3600.00" vehsPerHour="22.00"/>
<flow id="HV_21_0" type="HV_M" begin="0.00" departLane="0" departSpeed="avg" from="ent-EB610/SBMapleGrove" to="exit-EB610/Broadway" end="3600.00" vehsPerHour="45.50"/>
<flow id="HV_21_1" type="HV_M" begin="0.00" departLane="1" departSpeed="avg" from="ent-EB610/SBMapleGrove" to="exit-EB610/Broadway" end="3600.00" vehsPerHour="45.50"/>
<flow id="HV_22_0" type="HV_M" begin="0.00" departLane="0" departSpeed="avg" from="ent-EB610/SB169-2" to="exit-EB610/SBZane" end="3600.00" vehsPerHour="19.50"/>
<flow id="HV_22_1" type="HV_M" begin="0.00" departLane="1" departSpeed="avg" from="ent-EB610/SB169-2" to="exit-EB610/SBZane" end="3600.00" vehsPerHour="19.50"/>
<flow id="HV_23_0" type="HV_M" begin="0.00" departLane="0" departSpeed="avg" from="ent-EB610/NBBroadway" to="exit-EB610/SBZane" end="3600.00" vehsPerHour="6.00"/>
<flow id="HV_23_1" type="HV_M" begin="0.00" departLane="1" departSpeed="avg" from="ent-EB610/NBBroadway" to="exit-EB610/SBZane" end="3600.00" vehsPerHour="6.00"/>
<flow id="HV_24_0" type="HV_M" begin="0.00" departLane="0" departSpeed="avg" from="ent-EB610-94" to="exit-EB610/SBZane" end="3600.00" vehsPerHour="61.00"/>
<flow id="HV_24_1" type="HV_M" begin="0.00" departLane="1" departSpeed="avg" from="ent-EB610-94" to="exit-EB610/SBZane" end="3600.00" vehsPerHour="61.00"/>
<flow id="HV_25_0" type="HV_M" begin="0.00" departLane="0" departSpeed="avg" from="ent-EB610/EB81-2" to="exit-EB610/SBZane" end="3600.00" vehsPerHour="9.00"/>
<flow id="HV_25_1" type="HV_M" begin="0.00" departLane="1" departSpeed="avg" from="ent-EB610/EB81-2" to="exit-EB610/SBZane" end="3600.00" vehsPerHour="9.00"/>
<flow id="HV_26_0" type="HV_M" begin="0.00" departLane="0" departSpeed="avg" from="ent-EB610/NBZachary" to="exit-EB610/SBZane" end="3600.00" vehsPerHour="8.00"/>
<flow id="HV_26_1" type="HV_M" begin="0.00" departLane="1" departSpeed="avg" from="ent-EB610/NBZachary" to="exit-EB610/SBZane" end="3600.00" vehsPerHour="8.00"/>
<flow id="HV_27_0" type="HV_M" begin="0.00" departLane="0" departSpeed="avg" from="ent-EB610/NB169-2" to="exit-EB610/SBZane" end="3600.00" vehsPerHour="5.00"/>
<flow id="HV_27_1" type="HV_M" begin="0.00" departLane="1" departSpeed="avg" from="ent-EB610/NB169-2" to="exit-EB610/SBZane" end="3600.00" vehsPerHour="5.00"/>
<flow id="HV_28_0" type="HV_M" begin="0.00" departLane="0" departSpeed="avg" from="ent-EB610/SBMapleGrove" to="exit-EB610/SBZane" end="3600.00" vehsPerHour="11.00"/>
<flow id="HV_28_1" type="HV_M" begin="0.00" departLane="1" departSpeed="avg" from="ent-EB610/SBMapleGrove" to="exit-EB610/SBZane" end="3600.00" vehsPerHour="11.00"/>
<flow id="HV_29_0" type="HV_M" begin="0.00" departLane="0" departSpeed="avg" from="ent-EB610/SB169-2" to="exit-EB610/SBNoble" end="3600.00" vehsPerHour="13.00"/>
<flow id="HV_29_1" type="HV_M" begin="0.00" departLane="1" departSpeed="avg" from="ent-EB610/SB169-2" to="exit-EB610/SBNoble" end="3600.00" vehsPerHour="13.00"/>
<flow id="HV_30_0" type="HV_M" begin="0.00" departLane="0" departSpeed="avg" from="ent-EB610/NBBroadway" to="exit-EB610/SBNoble" end="3600.00" vehsPerHour="4.00"/>
<flow id="HV_30_1" type="HV_M" begin="0.00" departLane="1" departSpeed="avg" from="ent-EB610/NBBroadway" to="exit-EB610/SBNoble" end="3600.00" vehsPerHour="4.00"/>
<flow id="HV_31_0" type="HV_M" begin="0.00" departLane="0" departSpeed="avg" from="ent-EB610/NBZane" to="exit-EB610/SBNoble" end="3600.00" vehsPerHour="9.00"/>
<flow id="HV_31_1" type="HV_M" begin="0.00" departLane="1" departSpeed="avg" from="ent-EB610/NBZane" to="exit-EB610/SBNoble" end="3600.00" vehsPerHour="9.00"/>
<flow id="HV_32_0" type="HV_M" begin="0.00" departLane="0" departSpeed="avg" from="ent-EB610-94" to="exit-EB610/SBNoble" end="3600.00" vehsPerHour="40.00"/>
<flow id="HV_32_1" type="HV_M" begin="0.00" departLane="1" departSpeed="avg" from="ent-EB610-94" to="exit-EB610/SBNoble" end="3600.00" vehsPerHour="40.00"/>
<flow id="HV_33_0" type="HV_M" begin="0.00" departLane="0" departSpeed="avg" from="ent-EB610/EB81-2" to="exit-EB610/SBNoble" end="3600.00" vehsPerHour="6.00"/>
<flow id="HV_33_1" type="HV_M" begin="0.00" departLane="1" departSpeed="avg" from="ent-EB610/EB81-2" to="exit-EB610/SBNoble" end="3600.00" vehsPerHour="6.00"/>
<flow id="HV_34_0" type="HV_M" begin="0.00" departLane="0" departSpeed="avg" from="ent-EB610/NBZachary" to="exit-EB610/SBNoble" end="3600.00" vehsPerHour="5.00"/>
<flow id="HV_34_1" type="HV_M" begin="0.00" departLane="1" departSpeed="avg" from="ent-EB610/NBZachary" to="exit-EB610/SBNoble" end="3600.00" vehsPerHour="5.00"/>
<flow id="HV_35_0" type="HV_M" begin="0.00" departLane="0" departSpeed="avg" from="ent-EB610/NB169-2" to="exit-EB610/SBNoble" end="3600.00" vehsPerHour="3.50"/>
<flow id="HV_35_1" type="HV_M" begin="0.00" departLane="1" departSpeed="avg" from="ent-EB610/NB169-2" to="exit-EB610/SBNoble" end="3600.00" vehsPerHour="3.50"/>
<flow id="HV_36_0" type="HV_M" begin="0.00" departLane="0" departSpeed="avg" from="ent-EB610/SBMapleGrove" to="exit-EB610/SBNoble" end="3600.00" vehsPerHour="7.00"/>
<flow id="HV_36_1" type="HV_M" begin="0.00" departLane="1" departSpeed="avg" from="ent-EB610/SBMapleGrove" to="exit-EB610/SBNoble" end="3600.00" vehsPerHour="7.00"/>
<flow id="HV_37_0" type="HV_M" begin="0.00" departLane="0" departSpeed="avg" from="ent-EB610/SB169-2" to="exit-EB610/SB252" end="3600.00" vehsPerHour="51.00"/>
<flow id="HV_37_1" type="HV_M" begin="0.00" departLane="1" departSpeed="avg" from="ent-EB610/SB169-2" to="exit-EB610/SB252" end="3600.00" vehsPerHour="51.00"/>
<flow id="HV_38_0" type="HV_M" begin="0.00" departLane="0" departSpeed="avg" from="ent-EB610/NBBroadway" to="exit-EB610/SB252" end="3600.00" vehsPerHour="15.50"/>
<flow id="HV_38_1" type="HV_M" begin="0.00" departLane="1" departSpeed="avg" from="ent-EB610/NBBroadway" to="exit-EB610/SB252" end="3600.00" vehsPerHour="15.50"/>
<flow id="HV_39_0" type="HV_M" begin="0.00" departLane="0" departSpeed="avg" from="ent-EB610/NBZane" to="exit-EB610/SB252" end="3600.00" vehsPerHour="35.50"/>
<flow id="HV_39_1" type="HV_M" begin="0.00" departLane="1" departSpeed="avg" from="ent-EB610/NBZane" to="exit-EB610/SB252" end="3600.00" vehsPerHour="35.50"/>
<flow id="HV_40_0" type="HV_M" begin="0.00" departLane="0" departSpeed="avg" from="ent-EB610-94" to="exit-EB610/SB252" end="3600.00" vehsPerHour="159.00"/>
<flow id="HV_40_1" type="HV_M" begin="0.00" departLane="1" departSpeed="avg" from="ent-EB610-94" to="exit-EB610/SB252" end="3600.00" vehsPerHour="159.00"/>
<flow id="HV_41_0" type="HV_M" begin="0.00" departLane="0" departSpeed="avg" from="ent-EB610/EB81-2" to="exit-EB610/SB252" end="3600.00" vehsPerHour="23.50"/>
<flow id="HV_41_1" type="HV_M" begin="0.00" departLane="1" departSpeed="avg" from="ent-EB610/EB81-2" to="exit-EB610/SB252" end="3600.00" vehsPerHour="23.50"/>
<flow id="HV_42_0" type="HV_M" begin="0.00" departLane="0" departSpeed="avg" from="ent-EB610/NBZachary" to="exit-EB610/SB252" end="3600.00" vehsPerHour="20.50"/>
<flow id="HV_42_1" type="HV_M" begin="0.00" departLane="1" departSpeed="avg" from="ent-EB610/NBZachary" to="exit-EB610/SB252" end="3600.00" vehsPerHour="20.50"/>
<flow id="HV_43_0" type="HV_M" begin="0.00" departLane="0" departSpeed="avg" from="ent-EB610/NBNoble" to="exit-EB610/SB252" end="3600.00" vehsPerHour="57.50"/>
<flow id="HV_43_1" type="HV_M" begin="0.00" departLane="1" departSpeed="avg" from="ent-EB610/NBNoble" to="exit-EB610/SB252" end="3600.00" vehsPerHour="57.50"/>
<flow id="HV_44_0" type="HV_M" begin="0.00" departLane="0" departSpeed="avg" from="ent-EB610/NB169-2" to="exit-EB610/SB252" end="3600.00" vehsPerHour="13.50"/>
<flow id="HV_44_1" type="HV_M" begin="0.00" departLane="1" departSpeed="avg" from="ent-EB610/NB169-2" to="exit-EB610/SB252" end="3600.00" vehsPerHour="13.50"/>
<flow id="HV_45_0" type="HV_M" begin="0.00" departLane="0" departSpeed="avg" from="ent-EB610/SBMapleGrove" to="exit-EB610/SB252" end="3600.00" vehsPerHour="28.50"/>
<flow id="HV_45_1" type="HV_M" begin="0.00" departLane="1" departSpeed="avg" from="ent-EB610/SBMapleGrove" to="exit-EB610/SB252" end="3600.00" vehsPerHour="28.50"/>
<flow id="HV_46_0" type="HV_M" begin="0.00" departLane="0" departSpeed="avg" from="ent-EB610/SB169-2" to="exit-EB610/River" end="3600.00" vehsPerHour="23.00"/>
<flow id="HV_46_1" type="HV_M" begin="0.00" departLane="1" departSpeed="avg" from="ent-EB610/SB169-2" to="exit-EB610/River" end="3600.00" vehsPerHour="23.00"/>
<flow id="HV_47_0" type="HV_M" begin="0.00" departLane="0" departSpeed="avg" from="ent-EB610/NBBroadway" to="exit-EB610/River" end="3600.00" vehsPerHour="7.00"/>
<flow id="HV_47_1" type="HV_M" begin="0.00" departLane="1" departSpeed="avg" from="ent-EB610/NBBroadway" to="exit-EB610/River" end="3600.00" vehsPerHour="7.00"/>
<flow id="HV_48_0" type="HV_M" begin="0.00" departLane="0" departSpeed="avg" from="ent-EB610/NBZane" to="exit-EB610/River" end="3600.00" vehsPerHour="16.00"/>
<flow id="HV_48_1" type="HV_M" begin="0.00" departLane="1" departSpeed="avg" from="ent-EB610/NBZane" to="exit-EB610/River" end="3600.00" vehsPerHour="16.00"/>
<flow id="HV_49_0" type="HV_M" begin="0.00" departLane="0" departSpeed="avg" from="ent-EB610-94" to="exit-EB610/River" end="3600.00" vehsPerHour="71.50"/>
<flow id="HV_49_1" type="HV_M" begin="0.00" departLane="1" departSpeed="avg" from="ent-EB610-94" to="exit-EB610/River" end="3600.00" vehsPerHour="71.50"/>
<flow id="HV_50_0" type="HV_M" begin="0.00" departLane="0" departSpeed="avg" from="ent-EB610/EB81-2" to="exit-EB610/River" end="3600.00" vehsPerHour="10.50"/>
<flow id="HV_50_1" type="HV_M" begin="0.00" departLane="1" departSpeed="avg" from="ent-EB610/EB81-2" to="exit-EB610/River" end="3600.00" vehsPerHour="10.50"/>
<flow id="HV_51_0" type="HV_M" begin="0.00" departLane="0" departSpeed="avg" from="ent-EB610/NBZachary" to="exit-EB610/River" end="3600.00" vehsPerHour="9.50"/>
<flow id="HV_51_1" type="HV_M" begin="0.00" departLane="1" departSpeed="avg" from="ent-EB610/NBZachary" to="exit-EB610/River" end="3600.00" vehsPerHour="9.50"/>
<flow id="HV_52_0" type="HV_M" begin="0.00" departLane="0" departSpeed="avg" from="ent-EB610/NBNoble" to="exit-EB610/River" end="3600.00" vehsPerHour="25.50"/>
<flow id="HV_52_1" type="HV_M" begin="0.00" departLane="1" departSpeed="avg" from="ent-EB610/NBNoble" to="exit-EB610/River" end="3600.00" vehsPerHour="25.50"/>
<flow id="HV_53_0" type="HV_M" begin="0.00" departLane="0" departSpeed="avg" from="ent-EB610/NB252" to="exit-EB610/River" end="3600.00" vehsPerHour="47.00"/>
<flow id="HV_53_1" type="HV_M" begin="0.00" departLane="1" departSpeed="avg" from="ent-EB610/NB252" to="exit-EB610/River" end="3600.00" vehsPerHour="47.00"/>
<flow id="HV_54_0" type="HV_M" begin="0.00" departLane="0" departSpeed="avg" from="ent-EB610/NB169-2" to="exit-EB610/River" end="3600.00" vehsPerHour="6.00"/>
<flow id="HV_54_1" type="HV_M" begin="0.00" departLane="1" departSpeed="avg" from="ent-EB610/NB169-2" to="exit-EB610/River" end="3600.00" vehsPerHour="6.00"/>
<flow id="HV_55_0" type="HV_M" begin="0.00" departLane="0" departSpeed="avg" from="ent-EB610/SBMapleGrove" to="exit-EB610/River" end="3600.00" vehsPerHour="12.50"/>
<flow id="HV_55_1" type="HV_M" begin="0.00" departLane="1" departSpeed="avg" from="ent-EB610/SBMapleGrove" to="exit-EB610/River" end="3600.00" vehsPerHour="12.50"/>
<flow id="HV_56_0" type="HV_M" begin="0.00" departLane="0" departSpeed="avg" from="ent-EB610/SB169-2" to="exit-EB610/CoonRapids" end="3600.00" vehsPerHour="33.00"/>
<flow id="HV_56_1" type="HV_M" begin="0.00" departLane="1" departSpeed="avg" from="ent-EB610/SB169-2" to="exit-EB610/CoonRapids" end="3600.00" vehsPerHour="33.00"/>
<flow id="HV_57_0" type="HV_M" begin="0.00" departLane="0" departSpeed="avg" from="ent-EB610/NBBroadway" to="exit-EB610/CoonRapids" end="3600.00" vehsPerHour="10.00"/>
<flow id="HV_57_1" type="HV_M" begin="0.00" departLane="1" departSpeed="avg" from="ent-EB610/NBBroadway" to="exit-EB610/CoonRapids" end="3600.00" vehsPerHour="10.00"/>
<flow id="HV_58_0" type="HV_M" begin="0.00" departLane="0" departSpeed="avg" from="ent-EB610/NBZane" to="exit-EB610/CoonRapids" end="3600.00" vehsPerHour="23.00"/>
<flow id="HV_58_1" type="HV_M" begin="0.00" departLane="1" departSpeed="avg" from="ent-EB610/NBZane" to="exit-EB610/CoonRapids" end="3600.00" vehsPerHour="23.00"/>
<flow id="HV_59_0" type="HV_M" begin="0.00" departLane="0" departSpeed="avg" from="ent-EB610-94" to="exit-EB610/CoonRapids" end="3600.00" vehsPerHour="103.00"/>
<flow id="HV_59_1" type="HV_M" begin="0.00" departLane="1" departSpeed="avg" from="ent-EB610-94" to="exit-EB610/CoonRapids" end="3600.00" vehsPerHour="103.00"/>
<flow id="HV_60_0" type="HV_M" begin="0.00" departLane="0" departSpeed="avg" from="ent-EB610/EB81-2" to="exit-EB610/CoonRapids" end="3600.00" vehsPerHour="15.00"/>
<flow id="HV_60_1" type="HV_M" begin="0.00" departLane="1" departSpeed="avg" from="ent-EB610/EB81-2" to="exit-EB610/CoonRapids" end="3600.00" vehsPerHour="15.00"/>
<flow id="HV_61_0" type="HV_M" begin="0.00" departLane="0" departSpeed="avg" from="ent-EB610/NBZachary" to="exit-EB610/CoonRapids" end="3600.00" vehsPerHour="13.50"/>
<flow id="HV_61_1" type="HV_M" begin="0.00" departLane="1" departSpeed="avg" from="ent-EB610/NBZachary" to="exit-EB610/CoonRapids" end="3600.00" vehsPerHour="13.50"/>
<flow id="HV_62_0" type="HV_M" begin="0.00" departLane="0" departSpeed="avg" from="ent-EB610/NBNoble" to="exit-EB610/CoonRapids" end="3600.00" vehsPerHour="37.00"/>
<flow id="HV_62_1" type="HV_M" begin="0.00" departLane="1" departSpeed="avg" from="ent-EB610/NBNoble" to="exit-EB610/CoonRapids" end="3600.00" vehsPerHour="37.00"/>
<flow id="HV_63_0" type="HV_M" begin="0.00" departLane="0" departSpeed="avg" from="ent-EB610/NB252" to="exit-EB610/CoonRapids" end="3600.00" vehsPerHour="68.00"/>
<flow id="HV_63_1" type="HV_M" begin="0.00" departLane="1" departSpeed="avg" from="ent-EB610/NB252" to="exit-EB610/CoonRapids" end="3600.00" vehsPerHour="68.00"/>
<flow id="HV_64_0" type="HV_M" begin="0.00" departLane="0" departSpeed="avg" from="ent-EB610/NB169-2" to="exit-EB610/CoonRapids" end="3600.00" vehsPerHour="9.00"/>
<flow id="HV_64_1" type="HV_M" begin="0.00" departLane="1" departSpeed="avg" from="ent-EB610/NB169-2" to="exit-EB610/CoonRapids" end="3600.00" vehsPerHour="9.00"/>
<flow id="HV_65_0" type="HV_M" begin="0.00" departLane="0" departSpeed="avg" from="ent-EB610/SBMapleGrove" to="exit-EB610/CoonRapids" end="3600.00" vehsPerHour="18.50"/>
<flow id="HV_65_1" type="HV_M" begin="0.00" departLane="1" departSpeed="avg" from="ent-EB610/SBMapleGrove" to="exit-EB610/CoonRapids" end="3600.00" vehsPerHour="18.50"/>
<flow id="HV_66_0" type="HV_M" begin="0.00" departLane="0" departSpeed="avg" from="ent-EB610/SB169-2" to="exit-EB610/NB47" end="3600.00" vehsPerHour="11.50"/>
<flow id="HV_66_1" type="HV_M" begin="0.00" departLane="1" departSpeed="avg" from="ent-EB610/SB169-2" to="exit-EB610/NB47" end="3600.00" vehsPerHour="11.50"/>
<flow id="HV_67_0" type="HV_M" begin="0.00" departLane="0" departSpeed="avg" from="ent-EB610/NBBroadway" to="exit-EB610/NB47" end="3600.00" vehsPerHour="3.50"/>
<flow id="HV_67_1" type="HV_M" begin="0.00" departLane="1" departSpeed="avg" from="ent-EB610/NBBroadway" to="exit-EB610/NB47" end="3600.00" vehsPerHour="3.50"/>
<flow id="HV_68_0" type="HV_M" begin="0.00" departLane="0" departSpeed="avg" from="ent-EB610/NBZane" to="exit-EB610/NB47" end="3600.00" vehsPerHour="8.00"/>
<flow id="HV_68_1" type="HV_M" begin="0.00" departLane="1" departSpeed="avg" from="ent-EB610/NBZane" to="exit-EB610/NB47" end="3600.00" vehsPerHour="8.00"/>
<flow id="HV_69_0" type="HV_M" begin="0.00" departLane="0" departSpeed="avg" from="ent-EB610-94" to="exit-EB610/NB47" end="3600.00" vehsPerHour="36.00"/>
<flow id="HV_69_1" type="HV_M" begin="0.00" departLane="1" departSpeed="avg" from="ent-EB610-94" to="exit-EB610/NB47" end="3600.00" vehsPerHour="36.00"/>
<flow id="HV_70_0" type="HV_M" begin="0.00" departLane="0" departSpeed="avg" from="ent-EB610/EB81-2" to="exit-EB610/NB47" end="3600.00" vehsPerHour="5.50"/>
<flow id="HV_70_1" type="HV_M" begin="0.00" departLane="1" departSpeed="avg" from="ent-EB610/EB81-2" to="exit-EB610/NB47" end="3600.00" vehsPerHour="5.50"/>
<flow id="HV_71_0" type="HV_M" begin="0.00" departLane="0" departSpeed="avg" from="ent-EB610/NBZachary" to="exit-EB610/NB47" end="3600.00" vehsPerHour="4.50"/>
<flow id="HV_71_1" type="HV_M" begin="0.00" departLane="1" departSpeed="avg" from="ent-EB610/NBZachary" to="exit-EB610/NB47" end="3600.00" vehsPerHour="4.50"/>
<flow id="HV_72_0" type="HV_M" begin="0.00" departLane="0" departSpeed="avg" from="ent-EB610/NBNoble" to="exit-EB610/NB47" end="3600.00" vehsPerHour="13.00"/>
<flow id="HV_72_1" type="HV_M" begin="0.00" departLane="1" departSpeed="avg" from="ent-EB610/NBNoble" to="exit-EB610/NB47" end="3600.00" vehsPerHour="13.00"/>
<flow id="HV_73_0" type="HV_M" begin="0.00" departLane="0" departSpeed="avg" from="ent-EB610/NB252" to="exit-EB610/NB47" end="3600.00" vehsPerHour="23.50"/>
<flow id="HV_73_1" type="HV_M" begin="0.00" departLane="1" departSpeed="avg" from="ent-EB610/NB252" to="exit-EB610/NB47" end="3600.00" vehsPerHour="23.50"/>
<flow id="HV_74_0" type="HV_M" begin="0.00" departLane="0" departSpeed="avg" from="ent-EB610/NB169-2" to="exit-EB610/NB47" end="3600.00" vehsPerHour="3.00"/>
<flow id="HV_74_1" type="HV_M" begin="0.00" departLane="1" departSpeed="avg" from="ent-EB610/NB169-2" to="exit-EB610/NB47" end="3600.00" vehsPerHour="3.00"/>
<flow id="HV_75_0" type="HV_M" begin="0.00" departLane="0" departSpeed="avg" from="ent-EB610/SBMapleGrove" to="exit-EB610/NB47" end="3600.00" vehsPerHour="6.50"/>
<flow id="HV_75_1" type="HV_M" begin="0.00" departLane="1" departSpeed="avg" from="ent-EB610/SBMapleGrove" to="exit-EB610/NB47" end="3600.00" vehsPerHour="6.50"/>
<flow id="HV_76_0" type="HV_M" begin="0.00" departLane="0" departSpeed="avg" from="ent-EB610/SB169-2" to="exit-EB610/NBUniversity" end="3600.00" vehsPerHour="7.00"/>
<flow id="HV_76_1" type="HV_M" begin="0.00" departLane="1" departSpeed="avg" from="ent-EB610/SB169-2" to="exit-EB610/NBUniversity" end="3600.00" vehsPerHour="7.00"/>
<flow id="HV_77_0" type="HV_M" begin="0.00" departLane="0" departSpeed="avg" from="ent-EB610/NBBroadway" to="exit-EB610/NBUniversity" end="3600.00" vehsPerHour="2.00"/>
<flow id="HV_77_1" type="HV_M" begin="0.00" departLane="1" departSpeed="avg" from="ent-EB610/NBBroadway" to="exit-EB610/NBUniversity" end="3600.00" vehsPerHour="2.00"/>
<flow id="HV_78_0" type="HV_M" begin="0.00" departLane="0" departSpeed="avg" from="ent-EB610/NBZane" to="exit-EB610/NBUniversity" end="3600.00" vehsPerHour="4.50"/>
<flow id="HV_78_1" type="HV_M" begin="0.00" departLane="1" departSpeed="avg" from="ent-EB610/NBZane" to="exit-EB610/NBUniversity" end="3600.00" vehsPerHour="4.50"/>
<flow id="HV_79_0" type="HV_M" begin="0.00" departLane="0" departSpeed="avg" from="ent-EB610-94" to="exit-EB610/NBUniversity" end="3600.00" vehsPerHour="21.50"/>
<flow id="HV_79_1" type="HV_M" begin="0.00" departLane="1" departSpeed="avg" from="ent-EB610-94" to="exit-EB610/NBUniversity" end="3600.00" vehsPerHour="21.50"/>
<flow id="HV_80_0" type="HV_M" begin="0.00" departLane="0" departSpeed="avg" from="ent-EB610/EB81-2" to="exit-EB610/NBUniversity" end="3600.00" vehsPerHour="3.00"/>
<flow id="HV_80_1" type="HV_M" begin="0.00" departLane="1" departSpeed="avg" from="ent-EB610/EB81-2" to="exit-EB610/NBUniversity" end="3600.00" vehsPerHour="3.00"/>
<flow id="HV_81_0" type="HV_M" begin="0.00" departLane="0" departSpeed="avg" from="ent-EB610/NBZachary" to="exit-EB610/NBUniversity" end="3600.00" vehsPerHour="3.00"/>
<flow id="HV_81_1" type="HV_M" begin="0.00" departLane="1" departSpeed="avg" from="ent-EB610/NBZachary" to="exit-EB610/NBUniversity" end="3600.00" vehsPerHour="3.00"/>
<flow id="HV_82_0" type="HV_M" begin="0.00" departLane="0" departSpeed="avg" from="ent-EB610/NBNoble" to="exit-EB610/NBUniversity" end="3600.00" vehsPerHour="7.50"/>
<flow id="HV_82_1" type="HV_M" begin="0.00" departLane="1" departSpeed="avg" from="ent-EB610/NBNoble" to="exit-EB610/NBUniversity" end="3600.00" vehsPerHour="7.50"/>
<flow id="HV_83_0" type="HV_M" begin="0.00" departLane="0" departSpeed="avg" from="ent-EB610/NB252" to="exit-EB610/NBUniversity" end="3600.00" vehsPerHour="14.00"/>
<flow id="HV_83_1" type="HV_M" begin="0.00" departLane="1" departSpeed="avg" from="ent-EB610/NB252" to="exit-EB610/NBUniversity" end="3600.00" vehsPerHour="14.00"/>
<flow id="HV_84_0" type="HV_M" begin="0.00" departLane="0" departSpeed="avg" from="ent-EB610/NB169-2" to="exit-EB610/NBUniversity" end="3600.00" vehsPerHour="2.00"/>
<flow id="HV_84_1" type="HV_M" begin="0.00" departLane="1" departSpeed="avg" from="ent-EB610/NB169-2" to="exit-EB610/NBUniversity" end="3600.00" vehsPerHour="2.00"/>
<flow id="HV_85_0" type="HV_M" begin="0.00" departLane="0" departSpeed="avg" from="ent-EB610/SBMapleGrove" to="exit-EB610/NBUniversity" end="3600.00" vehsPerHour="4.00"/>
<flow id="HV_85_1" type="HV_M" begin="0.00" departLane="1" departSpeed="avg" from="ent-EB610/SBMapleGrove" to="exit-EB610/NBUniversity" end="3600.00" vehsPerHour="4.00"/>
<flow id="HV_86_0" type="HV_M" begin="0.00" departLane="0" departSpeed="avg" from="ent-EB610/SB169-2" to="exit-EB610" end="3600.00" vehsPerHour="113.50"/>
<flow id="HV_86_1" type="HV_M" begin="0.00" departLane="1" departSpeed="avg" from="ent-EB610/SB169-2" to="exit-EB610" end="3600.00" vehsPerHour="113.50"/>
<flow id="HV_87_0" type="HV_M" begin="0.00" departLane="0" departSpeed="avg" from="ent-EB610/NBBroadway" to="exit-EB610" end="3600.00" vehsPerHour="35.00"/>
<flow id="HV_87_1" type="HV_M" begin="0.00" departLane="1" departSpeed="avg" from="ent-EB610/NBBroadway" to="exit-EB610" end="3600.00" vehsPerHour="35.00"/>
<flow id="HV_88_0" type="HV_M" begin="0.00" departLane="0" departSpeed="avg" from="ent-EB610/NBZane" to="exit-EB610" end="3600.00" vehsPerHour="78.50"/>
<flow id="HV_88_1" type="HV_M" begin="0.00" departLane="1" departSpeed="avg" from="ent-EB610/NBZane" to="exit-EB610" end="3600.00" vehsPerHour="78.50"/>
<flow id="HV_89_0" type="HV_M" begin="0.00" departLane="0" departSpeed="avg" from="ent-EB610-94" to="exit-EB610" end="3600.00" vehsPerHour="354.50"/>
<flow id="HV_89_1" type="HV_M" begin="0.00" departLane="1" departSpeed="avg" from="ent-EB610-94" to="exit-EB610" end="3600.00" vehsPerHour="354.50"/>
<flow id="HV_90_0" type="HV_M" begin="0.00" departLane="0" departSpeed="avg" from="ent-EB610/EB81-2" to="exit-EB610" end="3600.00" vehsPerHour="52.00"/>
<flow id="HV_90_1" type="HV_M" begin="0.00" departLane="1" departSpeed="avg" from="ent-EB610/EB81-2" to="exit-EB610" end="3600.00" vehsPerHour="52.00"/>
<flow id="HV_91_0" type="HV_M" begin="0.00" departLane="0" departSpeed="avg" from="ent-EB610/NBZachary" to="exit-EB610" end="3600.00" vehsPerHour="46.00"/>
<flow id="HV_91_1" type="HV_M" begin="0.00" departLane="1" departSpeed="avg" from="ent-EB610/NBZachary" to="exit-EB610" end="3600.00" vehsPerHour="46.00"/>
<flow id="HV_92_0" type="HV_M" begin="0.00" departLane="0" departSpeed="avg" from="ent-EB610/NBNoble" to="exit-EB610" end="3600.00" vehsPerHour="128.00"/>